packages/py-dss-toolkit/py_dss_toolkit-0.4.0.tar.gz/py_dss_toolkit-0.4.0/examples/feeders/1_3PAS_1/CodCondutor_202312598_1_3PAS_1_------1-----.dss
New "Linecode.1_1" nphases=1 basefreq=60 r1=1.3526 x1=0.4537 units=km normamps=163.80
New "Linecode.1_2" nphases=2 basefreq=60 r1=1.3526 x1=0.4537 units=km normamps=163.80
New "Linecode.1_3" nphases=3 basefreq=60 r1=1.3526 x1=0.4537 units=km normamps=163.80
New "Linecode.1_4" nphases=4 basefreq=60 r1=1.3526 x1=0.4537 units=km normamps=163.80

New "Linecode.1_P_1" nphases=1 basefreq=60 r1=1.3526 x1=0.4537 units=km normamps=163.80
New "Linecode.1_P_2" nphases=2 basefreq=60 r1=1.3526 x1=0.4537 units=km normamps=163.80
New "Linecode.1_P_3" nphases=3 basefreq=60 r1=1.3526 x1=0.4537 units=km normamps=163.80
New "Linecode.1_P_4" nphases=4 basefreq=60 r1=1.3526 x1=0.4537 units=km normamps=163.80

New "Linecode.2_1" nphases=1 basefreq=60 r1=2.1532 x1=0.4712 units=km normamps=123.90
New "Linecode.2_2" nphases=2 basefreq=60 r1=2.1532 x1=0.4712 units=km normamps=123.90
New "Linecode.2_3" nphases=3 basefreq=60 r1=2.1532 x1=0.4712 units=km normamps=123.90
New "Linecode.2_4" nphases=4 basefreq=60 r1=2.1532 x1=0.4712 units=km normamps=123.90

New "Linecode.2_P_1" nphases=1 basefreq=60 r1=2.1532 x1=0.4712 units=km normamps=123.90
New "Linecode.2_P_2" nphases=2 basefreq=60 r1=2.1532 x1=0.4712 units=km normamps=123.90
New "Linecode.2_P_3" nphases=3 basefreq=60 r1=2.1532 x1=0.4712 units=km normamps=123.90
New "Linecode.2_P_4" nphases=4 basefreq=60 r1=2.1532 x1=0.4712 units=km normamps=123.90

New "Linecode.3_1" nphases=1 basefreq=60 r1=0.5060 x1=0.2920 units=km normamps=240.45
New "Linecode.3_2" nphases=2 basefreq=60 r1=0.5060 x1=0.2920 units=km normamps=240.45
New "Linecode.3_3" nphases=3 basefreq=60 r1=0.5060 x1=0.2920 units=km normamps=240.45
New "Linecode.3_4" nphases=4 basefreq=60 r1=0.5060 x1=0.2920 units=km normamps=240.45

New "Linecode.3_P_1" nphases=1 basefreq=60 r1=0.5060 x1=0.2920 units=km normamps=240.45
New "Linecode.3_P_2" nphases=2 basefreq=60 r1=0.5060 x1=0.2920 units=km normamps=240.45
New "Linecode.3_P_3" nphases=3 basefreq=60 r1=0.5060 x1=0.2920 units=km normamps=240.45
New "Linecode.3_P_4" nphases=4 basefreq=60 r1=0.5060 x1=0.2920 units=km normamps=240.45

New "Linecode.4_1" nphases=1 basefreq=60 r1=1.0714 x1=0.4449 units=km normamps=190.05
New "Linecode.4_2" nphases=2 basefreq=60 r1=1.0714 x1=0.4449 units=km normamps=190.05
New "Linecode.4_3" nphases=3 basefreq=60 r1=1.0714 x1=0.4449 units=km normamps=190.05
New "Linecode.4_4" nphases=4 basefreq=60 r1=1.0714 x1=0.4449 units=km normamps=190.05

New "Linecode.4_P_1" nphases=1 basefreq=60 r1=1.0714 x1=0.4449 units=km normamps=190.05
New "Linecode.4_P_2" nphases=2 basefreq=60 r1=1.0714 x1=0.4449 units=km normamps=190.05
New "Linecode.4_P_3" nphases=3 basefreq=60 r1=1.0714 x1=0.4449 units=km normamps=190.05
New "Linecode.4_P_4" nphases=4 basefreq=60 r1=1.0714 x1=0.4449 units=km normamps=190.05

New "Linecode.6_1" nphases=1 basefreq=60 r1=0.5340 x1=0.4186 units=km normamps=286.65
New "Linecode.6_2" nphases=2 basefreq=60 r1=0.5340 x1=0.4186 units=km normamps=286.65
New "Linecode.6_3" nphases=3 basefreq=60 r1=0.5340 x1=0.4186 units=km normamps=286.65
New "Linecode.6_4" nphases=4 basefreq=60 r1=0.5340 x1=0.4186 units=km normamps=286.65

New "Linecode.6_P_1" nphases=1 basefreq=60 r1=0.5340 x1=0.4186 units=km normamps=286.65
New "Linecode.6_P_2" nphases=2 basefreq=60 r1=0.5340 x1=0.4186 units=km normamps=286.65
New "Linecode.6_P_3" nphases=3 basefreq=60 r1=0.5340 x1=0.4186 units=km normamps=286.65
New "Linecode.6_P_4" nphases=4 basefreq=60 r1=0.5340 x1=0.4186 units=km normamps=286.65

New "Linecode.7_1" nphases=1 basefreq=60 r1=0.8540 x1=0.4462 units=km normamps=218.40
New "Linecode.7_2" nphases=2 basefreq=60 r1=0.8540 x1=0.4462 units=km normamps=218.40
New "Linecode.7_3" nphases=3 basefreq=60 r1=0.8540 x1=0.4462 units=km normamps=218.40
New "Linecode.7_4" nphases=4 basefreq=60 r1=0.8540 x1=0.4462 units=km normamps=218.40

New "Linecode.7_P_1" nphases=1 basefreq=60 r1=0.8540 x1=0.4462 units=km normamps=218.40
New "Linecode.7_P_2" nphases=2 basefreq=60 r1=0.8540 x1=0.4462 units=km normamps=218.40
New "Linecode.7_P_3" nphases=3 basefreq=60 r1=0.8540 x1=0.4462 units=km normamps=218.40
New "Linecode.7_P_4" nphases=4 basefreq=60 r1=0.8540 x1=0.4462 units=km normamps=218.40

New "Linecode.9_1" nphases=1 basefreq=60 r1=1.3526 x1=0.4537 units=km normamps=163.80
New "Linecode.9_2" nphases=2 basefreq=60 r1=1.3526 x1=0.4537 units=km normamps=163.80
New "Linecode.9_3" nphases=3 basefreq=60 r1=1.3526 x1=0.4537 units=km normamps=163.80
New "Linecode.9_4" nphases=4 basefreq=60 r1=1.3526 x1=0.4537 units=km normamps=163.80

New "Linecode.9_P_1" nphases=1 basefreq=60 r1=1.3526 x1=0.4537 units=km normamps=163.80
New "Linecode.9_P_2" nphases=2 basefreq=60 r1=1.3526 x1=0.4537 units=km normamps=163.80
New "Linecode.9_P_3" nphases=3 basefreq=60 r1=1.3526 x1=0.4537 units=km normamps=163.80
New "Linecode.9_P_4" nphases=4 basefreq=60 r1=1.3526 x1=0.4537 units=km normamps=163.80

New "Linecode.10_1" nphases=1 basefreq=60 r1=1.3526 x1=0.4537 units=km normamps=163.80
New "Linecode.10_2" nphases=2 basefreq=60 r1=1.3526 x1=0.4537 units=km normamps=163.80
New "Linecode.10_3" nphases=3 basefreq=60 r1=1.3526 x1=0.4537 units=km normamps=163.80
New "Linecode.10_4" nphases=4 basefreq=60 r1=1.3526 x1=0.4537 units=km normamps=163.80

New "Linecode.10_P_1" nphases=1 basefreq=60 r1=1.3526 x1=0.4537 units=km normamps=163.80
New "Linecode.10_P_2" nphases=2 basefreq=60 r1=1.3526 x1=0.4537 units=km normamps=163.80
New "Linecode.10_P_3" nphases=3 basefreq=60 r1=1.3526 x1=0.4537 units=km normamps=163.80
New "Linecode.10_P_4" nphases=4 basefreq=60 r1=1.3526 x1=0.4537 units=km normamps=163.80

New "Linecode.11_1" nphases=1 basefreq=60 r1=0.5340 x1=0.4186 units=km normamps=286.65
New "Linecode.11_2" nphases=2 basefreq=60 r1=0.5340 x1=0.4186 units=km normamps=286.65
New "Linecode.11_3" nphases=3 basefreq=60 r1=0.5340 x1=0.4186 units=km normamps=286.65
New "Linecode.11_4" nphases=4 basefreq=60 r1=0.5340 x1=0.4186 units=km normamps=286.65

New "Linecode.11_P_1" nphases=1 basefreq=60 r1=0.5340 x1=0.4186 units=km normamps=286.65
New "Linecode.11_P_2" nphases=2 basefreq=60 r1=0.5340 x1=0.4186 units=km normamps=286.65
New "Linecode.11_P_3" nphases=3 basefreq=60 r1=0.5340 x1=0.4186 units=km normamps=286.65
New "Linecode.11_P_4" nphases=4 basefreq=60 r1=0.5340 x1=0.4186 units=km normamps=286.65

New "Linecode.12_1" nphases=1 basefreq=60 r1=0.3364 x1=0.4012 units=km normamps=371.70
New "Linecode.12_2" nphases=2 basefreq=60 r1=0.3364 x1=0.4012 units=km normamps=371.70
New "Linecode.12_3" nphases=3 basefreq=60 r1=0.3364 x1=0.4012 units=km normamps=371.70
New "Linecode.12_4" nphases=4 basefreq=60 r1=0.3364 x1=0.4012 units=km normamps=371.70

New "Linecode.12_P_1" nphases=1 basefreq=60 r1=0.3364 x1=0.4012 units=km normamps=371.70
New "Linecode.12_P_2" nphases=2 basefreq=60 r1=0.3364 x1=0.4012 units=km normamps=371.70
New "Linecode.12_P_3" nphases=3 basefreq=60 r1=0.3364 x1=0.4012 units=km normamps=371.70
New "Linecode.12_P_4" nphases=4 basefreq=60 r1=0.3364 x1=0.4012 units=km normamps=371.70

New "Linecode.13_1" nphases=1 basefreq=60 r1=0.8500 x1=0.4362 units=km normamps=216.30
New "Linecode.13_2" nphases=2 basefreq=60 r1=0.8500 x1=0.4362 units=km normamps=216.30
New "Linecode.13_3" nphases=3 basefreq=60 r1=0.8500 x1=0.4362 units=km normamps=216.30
New "Linecode.13_4" nphases=4 basefreq=60 r1=0.8500 x1=0.4362 units=km normamps=216.30

New "Linecode.13_P_1" nphases=1 basefreq=60 r1=0.8500 x1=0.4362 units=km normamps=216.30
New "Linecode.13_P_2" nphases=2 basefreq=60 r1=0.8500 x1=0.4362 units=km normamps=216.30
New "Linecode.13_P_3" nphases=3 basefreq=60 r1=0.8500 x1=0.4362 units=km normamps=216.30
New "Linecode.13_P_4" nphases=4 basefreq=60 r1=0.8500 x1=0.4362 units=km normamps=216.30

New "Linecode.14_1" nphases=1 basefreq=60 r1=0.8540 x1=0.4462 units=km normamps=218.40
New "Linecode.14_2" nphases=2 basefreq=60 r1=0.8540 x1=0.4462 units=km normamps=218.40
New "Linecode.14_3" nphases=3 basefreq=60 r1=0.8540 x1=0.4462 units=km normamps=218.40
New "Linecode.14_4" nphases=4 basefreq=60 r1=0.8540 x1=0.4462 units=km normamps=218.40

New "Linecode.14_P_1" nphases=1 basefreq=60 r1=0.8540 x1=0.4462 units=km normamps=218.40
New "Linecode.14_P_2" nphases=2 basefreq=60 r1=0.8540 x1=0.4462 units=km normamps=218.40
New "Linecode.14_P_3" nphases=3 basefreq=60 r1=0.8540 x1=0.4462 units=km normamps=218.40
New "Linecode.14_P_4" nphases=4 basefreq=60 r1=0.8540 x1=0.4462 units=km normamps=218.40

New "Linecode.15_1" nphases=1 basefreq=60 r1=2.4690 x1=2.0970 units=km normamps=162.75
New "Linecode.15_2" nphases=2 basefreq=60 r1=2.4690 x1=2.0970 units=km normamps=162.75
New "Linecode.15_3" nphases=3 basefreq=60 r1=2.4690 x1=2.0970 units=km normamps=162.75
New "Linecode.15_4" nphases=4 basefreq=60 r1=2.4690 x1=2.0970 units=km normamps=162.75

New "Linecode.15_P_1" nphases=1 basefreq=60 r1=2.4690 x1=2.0970 units=km normamps=162.75
New "Linecode.15_P_2" nphases=2 basefreq=60 r1=2.4690 x1=2.0970 units=km normamps=162.75
New "Linecode.15_P_3" nphases=3 basefreq=60 r1=2.4690 x1=2.0970 units=km normamps=162.75
New "Linecode.15_P_4" nphases=4 basefreq=60 r1=2.4690 x1=2.0970 units=km normamps=162.75

New "Linecode.16_1" nphases=1 basefreq=60 r1=0.5340 x1=0.4186 units=km normamps=286.65
New "Linecode.16_2" nphases=2 basefreq=60 r1=0.5340 x1=0.4186 units=km normamps=286.65
New "Linecode.16_3" nphases=3 basefreq=60 r1=0.5340 x1=0.4186 units=km normamps=286.65
New "Linecode.16_4" nphases=4 basefreq=60 r1=0.5340 x1=0.4186 units=km normamps=286.65

New "Linecode.16_P_1" nphases=1 basefreq=60 r1=0.5340 x1=0.4186 units=km normamps=286.65
New "Linecode.16_P_2" nphases=2 basefreq=60 r1=0.5340 x1=0.4186 units=km normamps=286.65
New "Linecode.16_P_3" nphases=3 basefreq=60 r1=0.5340 x1=0.4186 units=km normamps=286.65
New "Linecode.16_P_4" nphases=4 basefreq=60 r1=0.5340 x1=0.4186 units=km normamps=286.65

New "Linecode.17_1" nphases=1 basefreq=60 r1=0.4243 x1=0.4100 units=km normamps=327.60
New "Linecode.17_2" nphases=2 basefreq=60 r1=0.4243 x1=0.4100 units=km normamps=327.60
New "Linecode.17_3" nphases=3 basefreq=60 r1=0.4243 x1=0.4100 units=km normamps=327.60
New "Linecode.17_4" nphases=4 basefreq=60 r1=0.4243 x1=0.4100 units=km normamps=327.60

New "Linecode.17_P_1" nphases=1 basefreq=60 r1=0.4243 x1=0.4100 units=km normamps=327.60
New "Linecode.17_P_2" nphases=2 basefreq=60 r1=0.4243 x1=0.4100 units=km normamps=327.60
New "Linecode.17_P_3" nphases=3 basefreq=60 r1=0.4243 x1=0.4100 units=km normamps=327.60
New "Linecode.17_P_4" nphases=4 basefreq=60 r1=0.4243 x1=0.4100 units=km normamps=327.60

New "Linecode.18_1" nphases=1 basefreq=60 r1=1.3526 x1=0.4537 units=km normamps=163.80
New "Linecode.18_2" nphases=2 basefreq=60 r1=1.3526 x1=0.4537 units=km normamps=163.80
New "Linecode.18_3" nphases=3 basefreq=60 r1=1.3526 x1=0.4537 units=km normamps=163.80
New "Linecode.18_4" nphases=4 basefreq=60 r1=1.3526 x1=0.4537 units=km normamps=163.80

New "Linecode.18_P_1" nphases=1 basefreq=60 r1=1.3526 x1=0.4537 units=km normamps=163.80
New "Linecode.18_P_2" nphases=2 basefreq=60 r1=1.3526 x1=0.4537 units=km normamps=163.80
New "Linecode.18_P_3" nphases=3 basefreq=60 r1=1.3526 x1=0.4537 units=km normamps=163.80
New "Linecode.18_P_4" nphases=4 basefreq=60 r1=1.3526 x1=0.4537 units=km normamps=163.80

New "Linecode.19_1" nphases=1 basefreq=60 r1=0.4243 x1=0.4100 units=km normamps=327.60
New "Linecode.19_2" nphases=2 basefreq=60 r1=0.4243 x1=0.4100 units=km normamps=327.60
New "Linecode.19_3" nphases=3 basefreq=60 r1=0.4243 x1=0.4100 units=km normamps=327.60
New "Linecode.19_4" nphases=4 basefreq=60 r1=0.4243 x1=0.4100 units=km normamps=327.60

New "Linecode.19_P_1" nphases=1 basefreq=60 r1=0.4243 x1=0.4100 units=km normamps=327.60
New "Linecode.19_P_2" nphases=2 basefreq=60 r1=0.4243 x1=0.4100 units=km normamps=327.60
New "Linecode.19_P_3" nphases=3 basefreq=60 r1=0.4243 x1=0.4100 units=km normamps=327.60
New "Linecode.19_P_4" nphases=4 basefreq=60 r1=0.4243 x1=0.4100 units=km normamps=327.60

New "Linecode.20_1" nphases=1 basefreq=60 r1=1.0770 x1=0.4550 units=km normamps=189.00
New "Linecode.20_2" nphases=2 basefreq=60 r1=1.0770 x1=0.4550 units=km normamps=189.00
New "Linecode.20_3" nphases=3 basefreq=60 r1=1.0770 x1=0.4550 units=km normamps=189.00
New "Linecode.20_4" nphases=4 basefreq=60 r1=1.0770 x1=0.4550 units=km normamps=189.00

New "Linecode.20_P_1" nphases=1 basefreq=60 r1=1.0770 x1=0.4550 units=km normamps=189.00
New "Linecode.20_P_2" nphases=2 basefreq=60 r1=1.0770 x1=0.4550 units=km normamps=189.00
New "Linecode.20_P_3" nphases=3 basefreq=60 r1=1.0770 x1=0.4550 units=km normamps=189.00
New "Linecode.20_P_4" nphases=4 basefreq=60 r1=1.0770 x1=0.4550 units=km normamps=189.00

New "Linecode.21_1" nphases=1 basefreq=60 r1=0.8500 x1=0.4362 units=km normamps=216.30
New "Linecode.21_2" nphases=2 basefreq=60 r1=0.8500 x1=0.4362 units=km normamps=216.30
New "Linecode.21_3" nphases=3 basefreq=60 r1=0.8500 x1=0.4362 units=km normamps=216.30
New "Linecode.21_4" nphases=4 basefreq=60 r1=0.8500 x1=0.4362 units=km normamps=216.30

New "Linecode.21_P_1" nphases=1 basefreq=60 r1=0.8500 x1=0.4362 units=km normamps=216.30
New "Linecode.21_P_2" nphases=2 basefreq=60 r1=0.8500 x1=0.4362 units=km normamps=216.30
New "Linecode.21_P_3" nphases=3 basefreq=60 r1=0.8500 x1=0.4362 units=km normamps=216.30
New "Linecode.21_P_4" nphases=4 basefreq=60 r1=0.8500 x1=0.4362 units=km normamps=216.30

New "Linecode.22_1" nphases=1 basefreq=60 r1=0.5060 x1=0.2920 units=km normamps=240.45
New "Linecode.22_2" nphases=2 basefreq=60 r1=0.5060 x1=0.2920 units=km normamps=240.45
New "Linecode.22_3" nphases=3 basefreq=60 r1=0.5060 x1=0.2920 units=km normamps=240.45
New "Linecode.22_4" nphases=4 basefreq=60 r1=0.5060 x1=0.2920 units=km normamps=240.45

New "Linecode.22_P_1" nphases=1 basefreq=60 r1=0.5060 x1=0.2920 units=km normamps=240.45
New "Linecode.22_P_2" nphases=2 basefreq=60 r1=0.5060 x1=0.2920 units=km normamps=240.45
New "Linecode.22_P_3" nphases=3 basefreq=60 r1=0.5060 x1=0.2920 units=km normamps=240.45
New "Linecode.22_P_4" nphases=4 basefreq=60 r1=0.5060 x1=0.2920 units=km normamps=240.45

New "Linecode.23_1" nphases=1 basefreq=60 r1=1.3526 x1=0.4537 units=km normamps=163.80
New "Linecode.23_2" nphases=2 basefreq=60 r1=1.3526 x1=0.4537 units=km normamps=163.80
New "Linecode.23_3" nphases=3 basefreq=60 r1=1.3526 x1=0.4537 units=km normamps=163.80
New "Linecode.23_4" nphases=4 basefreq=60 r1=1.3526 x1=0.4537 units=km normamps=163.80

New "Linecode.23_P_1" nphases=1 basefreq=60 r1=1.3526 x1=0.4537 units=km normamps=163.80
New "Linecode.23_P_2" nphases=2 basefreq=60 r1=1.3526 x1=0.4537 units=km normamps=163.80
New "Linecode.23_P_3" nphases=3 basefreq=60 r1=1.3526 x1=0.4537 units=km normamps=163.80
New "Linecode.23_P_4" nphases=4 basefreq=60 r1=1.3526 x1=0.4537 units=km normamps=163.80

New "Linecode.24_1" nphases=1 basefreq=60 r1=0.1380 x1=0.7343 units=km normamps=1508.85
New "Linecode.24_2" nphases=2 basefreq=60 r1=0.1380 x1=0.7343 units=km normamps=1508.85
New "Linecode.24_3" nphases=3 basefreq=60 r1=0.1380 x1=0.7343 units=km normamps=1508.85
New "Linecode.24_4" nphases=4 basefreq=60 r1=0.1380 x1=0.7343 units=km normamps=1508.85

New "Linecode.24_P_1" nphases=1 basefreq=60 r1=0.1380 x1=0.7343 units=km normamps=1508.85
New "Linecode.24_P_2" nphases=2 basefreq=60 r1=0.1380 x1=0.7343 units=km normamps=1508.85
New "Linecode.24_P_3" nphases=3 basefreq=60 r1=0.1380 x1=0.7343 units=km normamps=1508.85
New "Linecode.24_P_4" nphases=4 basefreq=60 r1=0.1380 x1=0.7343 units=km normamps=1508.85

New "Linecode.25_1" nphases=1 basefreq=60 r1=0.3364 x1=0.4012 units=km normamps=371.70
New "Linecode.25_2" nphases=2 basefreq=60 r1=0.3364 x1=0.4012 units=km normamps=371.70
New "Linecode.25_3" nphases=3 basefreq=60 r1=0.3364 x1=0.4012 units=km normamps=371.70
New "Linecode.25_4" nphases=4 basefreq=60 r1=0.3364 x1=0.4012 units=km normamps=371.70

New "Linecode.25_P_1" nphases=1 basefreq=60 r1=0.3364 x1=0.4012 units=km normamps=371.70
New "Linecode.25_P_2" nphases=2 basefreq=60 r1=0.3364 x1=0.4012 units=km normamps=371.70
New "Linecode.25_P_3" nphases=3 basefreq=60 r1=0.3364 x1=0.4012 units=km normamps=371.70
New "Linecode.25_P_4" nphases=4 basefreq=60 r1=0.3364 x1=0.4012 units=km normamps=371.70

New "Linecode.27_1" nphases=1 basefreq=60 r1=2.1532 x1=0.4712 units=km normamps=123.90
New "Linecode.27_2" nphases=2 basefreq=60 r1=2.1532 x1=0.4712 units=km normamps=123.90
New "Linecode.27_3" nphases=3 basefreq=60 r1=2.1532 x1=0.4712 units=km normamps=123.90
New "Linecode.27_4" nphases=4 basefreq=60 r1=2.1532 x1=0.4712 units=km normamps=123.90

New "Linecode.27_P_1" nphases=1 basefreq=60 r1=2.1532 x1=0.4712 units=km normamps=123.90
New "Linecode.27_P_2" nphases=2 basefreq=60 r1=2.1532 x1=0.4712 units=km normamps=123.90
New "Linecode.27_P_3" nphases=3 basefreq=60 r1=2.1532 x1=0.4712 units=km normamps=123.90
New "Linecode.27_P_4" nphases=4 basefreq=60 r1=2.1532 x1=0.4712 units=km normamps=123.90

New "Linecode.28_1" nphases=1 basefreq=60 r1=0.4243 x1=0.4100 units=km normamps=327.60
New "Linecode.28_2" nphases=2 basefreq=60 r1=0.4243 x1=0.4100 units=km normamps=327.60
New "Linecode.28_3" nphases=3 basefreq=60 r1=0.4243 x1=0.4100 units=km normamps=327.60
New "Linecode.28_4" nphases=4 basefreq=60 r1=0.4243 x1=0.4100 units=km normamps=327.60

New "Linecode.28_P_1" nphases=1 basefreq=60 r1=0.4243 x1=0.4100 units=km normamps=327.60
New "Linecode.28_P_2" nphases=2 basefreq=60 r1=0.4243 x1=0.4100 units=km normamps=327.60
New "Linecode.28_P_3" nphases=3 basefreq=60 r1=0.4243 x1=0.4100 units=km normamps=327.60
New "Linecode.28_P_4" nphases=4 basefreq=60 r1=0.4243 x1=0.4100 units=km normamps=327.60

New "Linecode.29_1" nphases=1 basefreq=60 r1=0.8500 x1=0.4362 units=km normamps=216.30
New "Linecode.29_2" nphases=2 basefreq=60 r1=0.8500 x1=0.4362 units=km normamps=216.30
New "Linecode.29_3" nphases=3 basefreq=60 r1=0.8500 x1=0.4362 units=km normamps=216.30
New "Linecode.29_4" nphases=4 basefreq=60 r1=0.8500 x1=0.4362 units=km normamps=216.30

New "Linecode.29_P_1" nphases=1 basefreq=60 r1=0.8500 x1=0.4362 units=km normamps=216.30
New "Linecode.29_P_2" nphases=2 basefreq=60 r1=0.8500 x1=0.4362 units=km normamps=216.30
New "Linecode.29_P_3" nphases=3 basefreq=60 r1=0.8500 x1=0.4362 units=km normamps=216.30
New "Linecode.29_P_4" nphases=4 basefreq=60 r1=0.8500 x1=0.4362 units=km normamps=216.30

New "Linecode.30_1" nphases=1 basefreq=60 r1=1.0770 x1=0.4550 units=km normamps=189.00
New "Linecode.30_2" nphases=2 basefreq=60 r1=1.0770 x1=0.4550 units=km normamps=189.00
New "Linecode.30_3" nphases=3 basefreq=60 r1=1.0770 x1=0.4550 units=km normamps=189.00
New "Linecode.30_4" nphases=4 basefreq=60 r1=1.0770 x1=0.4550 units=km normamps=189.00

New "Linecode.30_P_1" nphases=1 basefreq=60 r1=1.0770 x1=0.4550 units=km normamps=189.00
New "Linecode.30_P_2" nphases=2 basefreq=60 r1=1.0770 x1=0.4550 units=km normamps=189.00
New "Linecode.30_P_3" nphases=3 basefreq=60 r1=1.0770 x1=0.4550 units=km normamps=189.00
New "Linecode.30_P_4" nphases=4 basefreq=60 r1=1.0770 x1=0.4550 units=km normamps=189.00

New "Linecode.31_1" nphases=1 basefreq=60 r1=0.5060 x1=0.2920 units=km normamps=240.45
New "Linecode.31_2" nphases=2 basefreq=60 r1=0.5060 x1=0.2920 units=km normamps=240.45
New "Linecode.31_3" nphases=3 basefreq=60 r1=0.5060 x1=0.2920 units=km normamps=240.45
New "Linecode.31_4" nphases=4 basefreq=60 r1=0.5060 x1=0.2920 units=km normamps=240.45

New "Linecode.31_P_1" nphases=1 basefreq=60 r1=0.5060 x1=0.2920 units=km normamps=240.45
New "Linecode.31_P_2" nphases=2 basefreq=60 r1=0.5060 x1=0.2920 units=km normamps=240.45
New "Linecode.31_P_3" nphases=3 basefreq=60 r1=0.5060 x1=0.2920 units=km normamps=240.45
New "Linecode.31_P_4" nphases=4 basefreq=60 r1=0.5060 x1=0.2920 units=km normamps=240.45

New "Linecode.32_1" nphases=1 basefreq=60 r1=0.8500 x1=0.4362 units=km normamps=216.30
New "Linecode.32_2" nphases=2 basefreq=60 r1=0.8500 x1=0.4362 units=km normamps=216.30
New "Linecode.32_3" nphases=3 basefreq=60 r1=0.8500 x1=0.4362 units=km normamps=216.30
New "Linecode.32_4" nphases=4 basefreq=60 r1=0.8500 x1=0.4362 units=km normamps=216.30

New "Linecode.32_P_1" nphases=1 basefreq=60 r1=0.8500 x1=0.4362 units=km normamps=216.30
New "Linecode.32_P_2" nphases=2 basefreq=60 r1=0.8500 x1=0.4362 units=km normamps=216.30
New "Linecode.32_P_3" nphases=3 basefreq=60 r1=0.8500 x1=0.4362 units=km normamps=216.30
New "Linecode.32_P_4" nphases=4 basefreq=60 r1=0.8500 x1=0.4362 units=km normamps=216.30

New "Linecode.33_1" nphases=1 basefreq=60 r1=0.2667 x1=0.3925 units=km normamps=428.40
New "Linecode.33_2" nphases=2 basefreq=60 r1=0.2667 x1=0.3925 units=km normamps=428.40
New "Linecode.33_3" nphases=3 basefreq=60 r1=0.2667 x1=0.3925 units=km normamps=428.40
New "Linecode.33_4" nphases=4 basefreq=60 r1=0.2667 x1=0.3925 units=km normamps=428.40

New "Linecode.33_P_1" nphases=1 basefreq=60 r1=0.2667 x1=0.3925 units=km normamps=428.40
New "Linecode.33_P_2" nphases=2 basefreq=60 r1=0.2667 x1=0.3925 units=km normamps=428.40
New "Linecode.33_P_3" nphases=3 basefreq=60 r1=0.2667 x1=0.3925 units=km normamps=428.40
New "Linecode.33_P_4" nphases=4 basefreq=60 r1=0.2667 x1=0.3925 units=km normamps=428.40

New "Linecode.34_1" nphases=1 basefreq=60 r1=1.3593 x1=0.4638 units=km normamps=162.75
New "Linecode.34_2" nphases=2 basefreq=60 r1=1.3593 x1=0.4638 units=km normamps=162.75
New "Linecode.34_3" nphases=3 basefreq=60 r1=1.3593 x1=0.4638 units=km normamps=162.75
New "Linecode.34_4" nphases=4 basefreq=60 r1=1.3593 x1=0.4638 units=km normamps=162.75

New "Linecode.34_P_1" nphases=1 basefreq=60 r1=1.3593 x1=0.4638 units=km normamps=162.75
New "Linecode.34_P_2" nphases=2 basefreq=60 r1=1.3593 x1=0.4638 units=km normamps=162.75
New "Linecode.34_P_3" nphases=3 basefreq=60 r1=1.3593 x1=0.4638 units=km normamps=162.75
New "Linecode.34_P_4" nphases=4 basefreq=60 r1=1.3593 x1=0.4638 units=km normamps=162.75

New "Linecode.35_1" nphases=1 basefreq=60 r1=1.3526 x1=0.4537 units=km normamps=163.80
New "Linecode.35_2" nphases=2 basefreq=60 r1=1.3526 x1=0.4537 units=km normamps=163.80
New "Linecode.35_3" nphases=3 basefreq=60 r1=1.3526 x1=0.4537 units=km normamps=163.80
New "Linecode.35_4" nphases=4 basefreq=60 r1=1.3526 x1=0.4537 units=km normamps=163.80

New "Linecode.35_P_1" nphases=1 basefreq=60 r1=1.3526 x1=0.4537 units=km normamps=163.80
New "Linecode.35_P_2" nphases=2 basefreq=60 r1=1.3526 x1=0.4537 units=km normamps=163.80
New "Linecode.35_P_3" nphases=3 basefreq=60 r1=1.3526 x1=0.4537 units=km normamps=163.80
New "Linecode.35_P_4" nphases=4 basefreq=60 r1=1.3526 x1=0.4537 units=km normamps=163.80

New "Linecode.36_1" nphases=1 basefreq=60 r1=0.2667 x1=0.3925 units=km normamps=428.40
New "Linecode.36_2" nphases=2 basefreq=60 r1=0.2667 x1=0.3925 units=km normamps=428.40
New "Linecode.36_3" nphases=3 basefreq=60 r1=0.2667 x1=0.3925 units=km normamps=428.40
New "Linecode.36_4" nphases=4 basefreq=60 r1=0.2667 x1=0.3925 units=km normamps=428.40

New "Linecode.36_P_1" nphases=1 basefreq=60 r1=0.2667 x1=0.3925 units=km normamps=428.40
New "Linecode.36_P_2" nphases=2 basefreq=60 r1=0.2667 x1=0.3925 units=km normamps=428.40
New "Linecode.36_P_3" nphases=3 basefreq=60 r1=0.2667 x1=0.3925 units=km normamps=428.40
New "Linecode.36_P_4" nphases=4 basefreq=60 r1=0.2667 x1=0.3925 units=km normamps=428.40

New "Linecode.37_1" nphases=1 basefreq=60 r1=1.0714 x1=0.4449 units=km normamps=190.05
New "Linecode.37_2" nphases=2 basefreq=60 r1=1.0714 x1=0.4449 units=km normamps=190.05
New "Linecode.37_3" nphases=3 basefreq=60 r1=1.0714 x1=0.4449 units=km normamps=190.05
New "Linecode.37_4" nphases=4 basefreq=60 r1=1.0714 x1=0.4449 units=km normamps=190.05

New "Linecode.37_P_1" nphases=1 basefreq=60 r1=1.0714 x1=0.4449 units=km normamps=190.05
New "Linecode.37_P_2" nphases=2 basefreq=60 r1=1.0714 x1=0.4449 units=km normamps=190.05
New "Linecode.37_P_3" nphases=3 basefreq=60 r1=1.0714 x1=0.4449 units=km normamps=190.05
New "Linecode.37_P_4" nphases=4 basefreq=60 r1=1.0714 x1=0.4449 units=km normamps=190.05

New "Linecode.38_1" nphases=1 basefreq=60 r1=0.2530 x1=0.0916 units=km normamps=346.50
New "Linecode.38_2" nphases=2 basefreq=60 r1=0.2530 x1=0.0916 units=km normamps=346.50
New "Linecode.38_3" nphases=3 basefreq=60 r1=0.2530 x1=0.0916 units=km normamps=346.50
New "Linecode.38_4" nphases=4 basefreq=60 r1=0.2530 x1=0.0916 units=km normamps=346.50

New "Linecode.38_P_1" nphases=1 basefreq=60 r1=0.2530 x1=0.0916 units=km normamps=346.50
New "Linecode.38_P_2" nphases=2 basefreq=60 r1=0.2530 x1=0.0916 units=km normamps=346.50
New "Linecode.38_P_3" nphases=3 basefreq=60 r1=0.2530 x1=0.0916 units=km normamps=346.50
New "Linecode.38_P_4" nphases=4 basefreq=60 r1=0.2530 x1=0.0916 units=km normamps=346.50

New "Linecode.39_1" nphases=1 basefreq=60 r1=1.3593 x1=0.4638 units=km normamps=162.75
New "Linecode.39_2" nphases=2 basefreq=60 r1=1.3593 x1=0.4638 units=km normamps=162.75
New "Linecode.39_3" nphases=3 basefreq=60 r1=1.3593 x1=0.4638 units=km normamps=162.75
New "Linecode.39_4" nphases=4 basefreq=60 r1=1.3593 x1=0.4638 units=km normamps=162.75

New "Linecode.39_P_1" nphases=1 basefreq=60 r1=1.3593 x1=0.4638 units=km normamps=162.75
New "Linecode.39_P_2" nphases=2 basefreq=60 r1=1.3593 x1=0.4638 units=km normamps=162.75
New "Linecode.39_P_3" nphases=3 basefreq=60 r1=1.3593 x1=0.4638 units=km normamps=162.75
New "Linecode.39_P_4" nphases=4 basefreq=60 r1=1.3593 x1=0.4638 units=km normamps=162.75

New "Linecode.40_1" nphases=1 basefreq=60 r1=0.2890 x1=0.3120 units=km normamps=330.00
New "Linecode.40_2" nphases=2 basefreq=60 r1=0.2890 x1=0.3120 units=km normamps=330.00
New "Linecode.40_3" nphases=3 basefreq=60 r1=0.2890 x1=0.3120 units=km normamps=330.00
New "Linecode.40_4" nphases=4 basefreq=60 r1=0.2890 x1=0.3120 units=km normamps=330.00

New "Linecode.40_P_1" nphases=1 basefreq=60 r1=0.2890 x1=0.3120 units=km normamps=330.00
New "Linecode.40_P_2" nphases=2 basefreq=60 r1=0.2890 x1=0.3120 units=km normamps=330.00
New "Linecode.40_P_3" nphases=3 basefreq=60 r1=0.2890 x1=0.3120 units=km normamps=330.00
New "Linecode.40_P_4" nphases=4 basefreq=60 r1=0.2890 x1=0.3120 units=km normamps=330.00

New "Linecode.41_1" nphases=1 basefreq=60 r1=2.1532 x1=0.4712 units=km normamps=123.90
New "Linecode.41_2" nphases=2 basefreq=60 r1=2.1532 x1=0.4712 units=km normamps=123.90
New "Linecode.41_3" nphases=3 basefreq=60 r1=2.1532 x1=0.4712 units=km normamps=123.90
New "Linecode.41_4" nphases=4 basefreq=60 r1=2.1532 x1=0.4712 units=km normamps=123.90

New "Linecode.41_P_1" nphases=1 basefreq=60 r1=2.1532 x1=0.4712 units=km normamps=123.90
New "Linecode.41_P_2" nphases=2 basefreq=60 r1=2.1532 x1=0.4712 units=km normamps=123.90
New "Linecode.41_P_3" nphases=3 basefreq=60 r1=2.1532 x1=0.4712 units=km normamps=123.90
New "Linecode.41_P_4" nphases=4 basefreq=60 r1=2.1532 x1=0.4712 units=km normamps=123.90

New "Linecode.44_1" nphases=1 basefreq=60 r1=1.3526 x1=0.4537 units=km normamps=163.80
New "Linecode.44_2" nphases=2 basefreq=60 r1=1.3526 x1=0.4537 units=km normamps=163.80
New "Linecode.44_3" nphases=3 basefreq=60 r1=1.3526 x1=0.4537 units=km normamps=163.80
New "Linecode.44_4" nphases=4 basefreq=60 r1=1.3526 x1=0.4537 units=km normamps=163.80

New "Linecode.44_P_1" nphases=1 basefreq=60 r1=1.3526 x1=0.4537 units=km normamps=163.80
New "Linecode.44_P_2" nphases=2 basefreq=60 r1=1.3526 x1=0.4537 units=km normamps=163.80
New "Linecode.44_P_3" nphases=3 basefreq=60 r1=1.3526 x1=0.4537 units=km normamps=163.80
New "Linecode.44_P_4" nphases=4 basefreq=60 r1=1.3526 x1=0.4537 units=km normamps=163.80

New "Linecode.45_1" nphases=1 basefreq=60 r1=1.3526 x1=0.4537 units=km normamps=163.80
New "Linecode.45_2" nphases=2 basefreq=60 r1=1.3526 x1=0.4537 units=km normamps=163.80
New "Linecode.45_3" nphases=3 basefreq=60 r1=1.3526 x1=0.4537 units=km normamps=163.80
New "Linecode.45_4" nphases=4 basefreq=60 r1=1.3526 x1=0.4537 units=km normamps=163.80

New "Linecode.45_P_1" nphases=1 basefreq=60 r1=1.3526 x1=0.4537 units=km normamps=163.80
New "Linecode.45_P_2" nphases=2 basefreq=60 r1=1.3526 x1=0.4537 units=km normamps=163.80
New "Linecode.45_P_3" nphases=3 basefreq=60 r1=1.3526 x1=0.4537 units=km normamps=163.80
New "Linecode.45_P_4" nphases=4 basefreq=60 r1=1.3526 x1=0.4537 units=km normamps=163.80

New "Linecode.46_1" nphases=1 basefreq=60 r1=1.3526 x1=0.4537 units=km normamps=163.80
New "Linecode.46_2" nphases=2 basefreq=60 r1=1.3526 x1=0.4537 units=km normamps=163.80
New "Linecode.46_3" nphases=3 basefreq=60 r1=1.3526 x1=0.4537 units=km normamps=163.80
New "Linecode.46_4" nphases=4 basefreq=60 r1=1.3526 x1=0.4537 units=km normamps=163.80

New "Linecode.46_P_1" nphases=1 basefreq=60 r1=1.3526 x1=0.4537 units=km normamps=163.80
New "Linecode.46_P_2" nphases=2 basefreq=60 r1=1.3526 x1=0.4537 units=km normamps=163.80
New "Linecode.46_P_3" nphases=3 basefreq=60 r1=1.3526 x1=0.4537 units=km normamps=163.80
New "Linecode.46_P_4" nphases=4 basefreq=60 r1=1.3526 x1=0.4537 units=km normamps=163.80

New "Linecode.47_1" nphases=1 basefreq=60 r1=0.8680 x1=0.0995 units=km normamps=124.95
New "Linecode.47_2" nphases=2 basefreq=60 r1=0.8680 x1=0.0995 units=km normamps=124.95
New "Linecode.47_3" nphases=3 basefreq=60 r1=0.8680 x1=0.0995 units=km normamps=124.95
New "Linecode.47_4" nphases=4 basefreq=60 r1=0.8680 x1=0.0995 units=km normamps=124.95

New "Linecode.47_P_1" nphases=1 basefreq=60 r1=0.8680 x1=0.0995 units=km normamps=124.95
New "Linecode.47_P_2" nphases=2 basefreq=60 r1=0.8680 x1=0.0995 units=km normamps=124.95
New "Linecode.47_P_3" nphases=3 basefreq=60 r1=0.8680 x1=0.0995 units=km normamps=124.95
New "Linecode.47_P_4" nphases=4 basefreq=60 r1=0.8680 x1=0.0995 units=km normamps=124.95

New "Linecode.49_1" nphases=1 basefreq=60 r1=0.8540 x1=0.4462 units=km normamps=218.40
New "Linecode.49_2" nphases=2 basefreq=60 r1=0.8540 x1=0.4462 units=km normamps=218.40
New "Linecode.49_3" nphases=3 basefreq=60 r1=0.8540 x1=0.4462 units=km normamps=218.40
New "Linecode.49_4" nphases=4 basefreq=60 r1=0.8540 x1=0.4462 units=km normamps=218.40

New "Linecode.49_P_1" nphases=1 basefreq=60 r1=0.8540 x1=0.4462 units=km normamps=218.40
New "Linecode.49_P_2" nphases=2 basefreq=60 r1=0.8540 x1=0.4462 units=km normamps=218.40
New "Linecode.49_P_3" nphases=3 basefreq=60 r1=0.8540 x1=0.4462 units=km normamps=218.40
New "Linecode.49_P_4" nphases=4 basefreq=60 r1=0.8540 x1=0.4462 units=km normamps=218.40

New "Linecode.50_1" nphases=1 basefreq=60 r1=1.9100 x1=0.1022 units=km normamps=90.30
New "Linecode.50_2" nphases=2 basefreq=60 r1=1.9100 x1=0.1022 units=km normamps=90.30
New "Linecode.50_3" nphases=3 basefreq=60 r1=1.9100 x1=0.1022 units=km normamps=90.30
New "Linecode.50_4" nphases=4 basefreq=60 r1=1.9100 x1=0.1022 units=km normamps=90.30

New "Linecode.50_P_1" nphases=1 basefreq=60 r1=1.9100 x1=0.1022 units=km normamps=90.30
New "Linecode.50_P_2" nphases=2 basefreq=60 r1=1.9100 x1=0.1022 units=km normamps=90.30
New "Linecode.50_P_3" nphases=3 basefreq=60 r1=1.9100 x1=0.1022 units=km normamps=90.30
New "Linecode.50_P_4" nphases=4 basefreq=60 r1=1.9100 x1=0.1022 units=km normamps=90.30

New "Linecode.51_1" nphases=1 basefreq=60 r1=1.9100 x1=0.1022 units=km normamps=61.95
New "Linecode.51_2" nphases=2 basefreq=60 r1=1.9100 x1=0.1022 units=km normamps=61.95
New "Linecode.51_3" nphases=3 basefreq=60 r1=1.9100 x1=0.1022 units=km normamps=61.95
New "Linecode.51_4" nphases=4 basefreq=60 r1=1.9100 x1=0.1022 units=km normamps=61.95

New "Linecode.51_P_1" nphases=1 basefreq=60 r1=1.9100 x1=0.1022 units=km normamps=61.95
New "Linecode.51_P_2" nphases=2 basefreq=60 r1=1.9100 x1=0.1022 units=km normamps=61.95
New "Linecode.51_P_3" nphases=3 basefreq=60 r1=1.9100 x1=0.1022 units=km normamps=61.95
New "Linecode.51_P_4" nphases=4 basefreq=60 r1=1.9100 x1=0.1022 units=km normamps=61.95

New "Linecode.53_1" nphases=1 basefreq=60 r1=0.5373 x1=0.4288 units=km normamps=291.90
New "Linecode.53_2" nphases=2 basefreq=60 r1=0.5373 x1=0.4288 units=km normamps=291.90
New "Linecode.53_3" nphases=3 basefreq=60 r1=0.5373 x1=0.4288 units=km normamps=291.90
New "Linecode.53_4" nphases=4 basefreq=60 r1=0.5373 x1=0.4288 units=km normamps=291.90

New "Linecode.53_P_1" nphases=1 basefreq=60 r1=0.5373 x1=0.4288 units=km normamps=291.90
New "Linecode.53_P_2" nphases=2 basefreq=60 r1=0.5373 x1=0.4288 units=km normamps=291.90
New "Linecode.53_P_3" nphases=3 basefreq=60 r1=0.5373 x1=0.4288 units=km normamps=291.90
New "Linecode.53_P_4" nphases=4 basefreq=60 r1=0.5373 x1=0.4288 units=km normamps=291.90

New "Linecode.54_1" nphases=1 basefreq=60 r1=0.8500 x1=0.4362 units=km normamps=216.30
New "Linecode.54_2" nphases=2 basefreq=60 r1=0.8500 x1=0.4362 units=km normamps=216.30
New "Linecode.54_3" nphases=3 basefreq=60 r1=0.8500 x1=0.4362 units=km normamps=216.30
New "Linecode.54_4" nphases=4 basefreq=60 r1=0.8500 x1=0.4362 units=km normamps=216.30

New "Linecode.54_P_1" nphases=1 basefreq=60 r1=0.8500 x1=0.4362 units=km normamps=216.30
New "Linecode.54_P_2" nphases=2 basefreq=60 r1=0.8500 x1=0.4362 units=km normamps=216.30
New "Linecode.54_P_3" nphases=3 basefreq=60 r1=0.8500 x1=0.4362 units=km normamps=216.30
New "Linecode.54_P_4" nphases=4 basefreq=60 r1=0.8500 x1=0.4362 units=km normamps=216.30

New "Linecode.55_1" nphases=1 basefreq=60 r1=2.1532 x1=0.4712 units=km normamps=123.90
New "Linecode.55_2" nphases=2 basefreq=60 r1=2.1532 x1=0.4712 units=km normamps=123.90
New "Linecode.55_3" nphases=3 basefreq=60 r1=2.1532 x1=0.4712 units=km normamps=123.90
New "Linecode.55_4" nphases=4 basefreq=60 r1=2.1532 x1=0.4712 units=km normamps=123.90

New "Linecode.55_P_1" nphases=1 basefreq=60 r1=2.1532 x1=0.4712 units=km normamps=123.90
New "Linecode.55_P_2" nphases=2 basefreq=60 r1=2.1532 x1=0.4712 units=km normamps=123.90
New "Linecode.55_P_3" nphases=3 basefreq=60 r1=2.1532 x1=0.4712 units=km normamps=123.90
New "Linecode.55_P_4" nphases=4 basefreq=60 r1=2.1532 x1=0.4712 units=km normamps=123.90

New "Linecode.56_1" nphases=1 basefreq=60 r1=0.5373 x1=0.4288 units=km normamps=291.90
New "Linecode.56_2" nphases=2 basefreq=60 r1=0.5373 x1=0.4288 units=km normamps=291.90
New "Linecode.56_3" nphases=3 basefreq=60 r1=0.5373 x1=0.4288 units=km normamps=291.90
New "Linecode.56_4" nphases=4 basefreq=60 r1=0.5373 x1=0.4288 units=km normamps=291.90

New "Linecode.56_P_1" nphases=1 basefreq=60 r1=0.5373 x1=0.4288 units=km normamps=291.90
New "Linecode.56_P_2" nphases=2 basefreq=60 r1=0.5373 x1=0.4288 units=km normamps=291.90
New "Linecode.56_P_3" nphases=3 basefreq=60 r1=0.5373 x1=0.4288 units=km normamps=291.90
New "Linecode.56_P_4" nphases=4 basefreq=60 r1=0.5373 x1=0.4288 units=km normamps=291.90

New "Linecode.57_1" nphases=1 basefreq=60 r1=1.2000 x1=0.1004 units=km normamps=101.85
New "Linecode.57_2" nphases=2 basefreq=60 r1=1.2000 x1=0.1004 units=km normamps=101.85
New "Linecode.57_3" nphases=3 basefreq=60 r1=1.2000 x1=0.1004 units=km normamps=101.85
New "Linecode.57_4" nphases=4 basefreq=60 r1=1.2000 x1=0.1004 units=km normamps=101.85

New "Linecode.57_P_1" nphases=1 basefreq=60 r1=1.2000 x1=0.1004 units=km normamps=101.85
New "Linecode.57_P_2" nphases=2 basefreq=60 r1=1.2000 x1=0.1004 units=km normamps=101.85
New "Linecode.57_P_3" nphases=3 basefreq=60 r1=1.2000 x1=0.1004 units=km normamps=101.85
New "Linecode.57_P_4" nphases=4 basefreq=60 r1=1.2000 x1=0.1004 units=km normamps=101.85

New "Linecode.58_1" nphases=1 basefreq=60 r1=0.6410 x1=0.0959 units=km normamps=128.10
New "Linecode.58_2" nphases=2 basefreq=60 r1=0.6410 x1=0.0959 units=km normamps=128.10
New "Linecode.58_3" nphases=3 basefreq=60 r1=0.6410 x1=0.0959 units=km normamps=128.10
New "Linecode.58_4" nphases=4 basefreq=60 r1=0.6410 x1=0.0959 units=km normamps=128.10

New "Linecode.58_P_1" nphases=1 basefreq=60 r1=0.6410 x1=0.0959 units=km normamps=128.10
New "Linecode.58_P_2" nphases=2 basefreq=60 r1=0.6410 x1=0.0959 units=km normamps=128.10
New "Linecode.58_P_3" nphases=3 basefreq=60 r1=0.6410 x1=0.0959 units=km normamps=128.10
New "Linecode.58_P_4" nphases=4 basefreq=60 r1=0.6410 x1=0.0959 units=km normamps=128.10

New "Linecode.59_1" nphases=1 basefreq=60 r1=0.8500 x1=0.4362 units=km normamps=216.30
New "Linecode.59_2" nphases=2 basefreq=60 r1=0.8500 x1=0.4362 units=km normamps=216.30
New "Linecode.59_3" nphases=3 basefreq=60 r1=0.8500 x1=0.4362 units=km normamps=216.30
New "Linecode.59_4" nphases=4 basefreq=60 r1=0.8500 x1=0.4362 units=km normamps=216.30

New "Linecode.59_P_1" nphases=1 basefreq=60 r1=0.8500 x1=0.4362 units=km normamps=216.30
New "Linecode.59_P_2" nphases=2 basefreq=60 r1=0.8500 x1=0.4362 units=km normamps=216.30
New "Linecode.59_P_3" nphases=3 basefreq=60 r1=0.8500 x1=0.4362 units=km normamps=216.30
New "Linecode.59_P_4" nphases=4 basefreq=60 r1=0.8500 x1=0.4362 units=km normamps=216.30

New "Linecode.60_1" nphases=1 basefreq=60 r1=1.3526 x1=0.4537 units=km normamps=163.80
New "Linecode.60_2" nphases=2 basefreq=60 r1=1.3526 x1=0.4537 units=km normamps=163.80
New "Linecode.60_3" nphases=3 basefreq=60 r1=1.3526 x1=0.4537 units=km normamps=163.80
New "Linecode.60_4" nphases=4 basefreq=60 r1=1.3526 x1=0.4537 units=km normamps=163.80

New "Linecode.60_P_1" nphases=1 basefreq=60 r1=1.3526 x1=0.4537 units=km normamps=163.80
New "Linecode.60_P_2" nphases=2 basefreq=60 r1=1.3526 x1=0.4537 units=km normamps=163.80
New "Linecode.60_P_3" nphases=3 basefreq=60 r1=1.3526 x1=0.4537 units=km normamps=163.80
New "Linecode.60_P_4" nphases=4 basefreq=60 r1=1.3526 x1=0.4537 units=km normamps=163.80

New "Linecode.61_1" nphases=1 basefreq=60 r1=0.5340 x1=0.4186 units=km normamps=286.65
New "Linecode.61_2" nphases=2 basefreq=60 r1=0.5340 x1=0.4186 units=km normamps=286.65
New "Linecode.61_3" nphases=3 basefreq=60 r1=0.5340 x1=0.4186 units=km normamps=286.65
New "Linecode.61_4" nphases=4 basefreq=60 r1=0.5340 x1=0.4186 units=km normamps=286.65

New "Linecode.61_P_1" nphases=1 basefreq=60 r1=0.5340 x1=0.4186 units=km normamps=286.65
New "Linecode.61_P_2" nphases=2 basefreq=60 r1=0.5340 x1=0.4186 units=km normamps=286.65
New "Linecode.61_P_3" nphases=3 basefreq=60 r1=0.5340 x1=0.4186 units=km normamps=286.65
New "Linecode.61_P_4" nphases=4 basefreq=60 r1=0.5340 x1=0.4186 units=km normamps=286.65

New "Linecode.62_1" nphases=1 basefreq=60 r1=0.8500 x1=0.4362 units=km normamps=216.30
New "Linecode.62_2" nphases=2 basefreq=60 r1=0.8500 x1=0.4362 units=km normamps=216.30
New "Linecode.62_3" nphases=3 basefreq=60 r1=0.8500 x1=0.4362 units=km normamps=216.30
New "Linecode.62_4" nphases=4 basefreq=60 r1=0.8500 x1=0.4362 units=km normamps=216.30

New "Linecode.62_P_1" nphases=1 basefreq=60 r1=0.8500 x1=0.4362 units=km normamps=216.30
New "Linecode.62_P_2" nphases=2 basefreq=60 r1=0.8500 x1=0.4362 units=km normamps=216.30
New "Linecode.62_P_3" nphases=3 basefreq=60 r1=0.8500 x1=0.4362 units=km normamps=216.30
New "Linecode.62_P_4" nphases=4 basefreq=60 r1=0.8500 x1=0.4362 units=km normamps=216.30

New "Linecode.64_1" nphases=1 basefreq=60 r1=0.5340 x1=0.4186 units=km normamps=286.65
New "Linecode.64_2" nphases=2 basefreq=60 r1=0.5340 x1=0.4186 units=km normamps=286.65
New "Linecode.64_3" nphases=3 basefreq=60 r1=0.5340 x1=0.4186 units=km normamps=286.65
New "Linecode.64_4" nphases=4 basefreq=60 r1=0.5340 x1=0.4186 units=km normamps=286.65

New "Linecode.64_P_1" nphases=1 basefreq=60 r1=0.5340 x1=0.4186 units=km normamps=286.65
New "Linecode.64_P_2" nphases=2 basefreq=60 r1=0.5340 x1=0.4186 units=km normamps=286.65
New "Linecode.64_P_3" nphases=3 basefreq=60 r1=0.5340 x1=0.4186 units=km normamps=286.65
New "Linecode.64_P_4" nphases=4 basefreq=60 r1=0.5340 x1=0.4186 units=km normamps=286.65

New "Linecode.65_1" nphases=1 basefreq=60 r1=0.6410 x1=0.0959 units=km normamps=128.10
New "Linecode.65_2" nphases=2 basefreq=60 r1=0.6410 x1=0.0959 units=km normamps=128.10
New "Linecode.65_3" nphases=3 basefreq=60 r1=0.6410 x1=0.0959 units=km normamps=128.10
New "Linecode.65_4" nphases=4 basefreq=60 r1=0.6410 x1=0.0959 units=km normamps=128.10

New "Linecode.65_P_1" nphases=1 basefreq=60 r1=0.6410 x1=0.0959 units=km normamps=128.10
New "Linecode.65_P_2" nphases=2 basefreq=60 r1=0.6410 x1=0.0959 units=km normamps=128.10
New "Linecode.65_P_3" nphases=3 basefreq=60 r1=0.6410 x1=0.0959 units=km normamps=128.10
New "Linecode.65_P_4" nphases=4 basefreq=60 r1=0.6410 x1=0.0959 units=km normamps=128.10

New "Linecode.66_1" nphases=1 basefreq=60 r1=2.1532 x1=0.4712 units=km normamps=123.90
New "Linecode.66_2" nphases=2 basefreq=60 r1=2.1532 x1=0.4712 units=km normamps=123.90
New "Linecode.66_3" nphases=3 basefreq=60 r1=2.1532 x1=0.4712 units=km normamps=123.90
New "Linecode.66_4" nphases=4 basefreq=60 r1=2.1532 x1=0.4712 units=km normamps=123.90

New "Linecode.66_P_1" nphases=1 basefreq=60 r1=2.1532 x1=0.4712 units=km normamps=123.90
New "Linecode.66_P_2" nphases=2 basefreq=60 r1=2.1532 x1=0.4712 units=km normamps=123.90
New "Linecode.66_P_3" nphases=3 basefreq=60 r1=2.1532 x1=0.4712 units=km normamps=123.90
New "Linecode.66_P_4" nphases=4 basefreq=60 r1=2.1532 x1=0.4712 units=km normamps=123.90

New "Linecode.67_1" nphases=1 basefreq=60 r1=0.8500 x1=0.4362 units=km normamps=216.30
New "Linecode.67_2" nphases=2 basefreq=60 r1=0.8500 x1=0.4362 units=km normamps=216.30
New "Linecode.67_3" nphases=3 basefreq=60 r1=0.8500 x1=0.4362 units=km normamps=216.30
New "Linecode.67_4" nphases=4 basefreq=60 r1=0.8500 x1=0.4362 units=km normamps=216.30

New "Linecode.67_P_1" nphases=1 basefreq=60 r1=0.8500 x1=0.4362 units=km normamps=216.30
New "Linecode.67_P_2" nphases=2 basefreq=60 r1=0.8500 x1=0.4362 units=km normamps=216.30
New "Linecode.67_P_3" nphases=3 basefreq=60 r1=0.8500 x1=0.4362 units=km normamps=216.30
New "Linecode.67_P_4" nphases=4 basefreq=60 r1=0.8500 x1=0.4362 units=km normamps=216.30

New "Linecode.68_1" nphases=1 basefreq=60 r1=0.5340 x1=0.4186 units=km normamps=286.65
New "Linecode.68_2" nphases=2 basefreq=60 r1=0.5340 x1=0.4186 units=km normamps=286.65
New "Linecode.68_3" nphases=3 basefreq=60 r1=0.5340 x1=0.4186 units=km normamps=286.65
New "Linecode.68_4" nphases=4 basefreq=60 r1=0.5340 x1=0.4186 units=km normamps=286.65

New "Linecode.68_P_1" nphases=1 basefreq=60 r1=0.5340 x1=0.4186 units=km normamps=286.65
New "Linecode.68_P_2" nphases=2 basefreq=60 r1=0.5340 x1=0.4186 units=km normamps=286.65
New "Linecode.68_P_3" nphases=3 basefreq=60 r1=0.5340 x1=0.4186 units=km normamps=286.65
New "Linecode.68_P_4" nphases=4 basefreq=60 r1=0.5340 x1=0.4186 units=km normamps=286.65

New "Linecode.69_1" nphases=1 basefreq=60 r1=0.5340 x1=0.4186 units=km normamps=286.65
New "Linecode.69_2" nphases=2 basefreq=60 r1=0.5340 x1=0.4186 units=km normamps=286.65
New "Linecode.69_3" nphases=3 basefreq=60 r1=0.5340 x1=0.4186 units=km normamps=286.65
New "Linecode.69_4" nphases=4 basefreq=60 r1=0.5340 x1=0.4186 units=km normamps=286.65

New "Linecode.69_P_1" nphases=1 basefreq=60 r1=0.5340 x1=0.4186 units=km normamps=286.65
New "Linecode.69_P_2" nphases=2 basefreq=60 r1=0.5340 x1=0.4186 units=km normamps=286.65
New "Linecode.69_P_3" nphases=3 basefreq=60 r1=0.5340 x1=0.4186 units=km normamps=286.65
New "Linecode.69_P_4" nphases=4 basefreq=60 r1=0.5340 x1=0.4186 units=km normamps=286.65

New "Linecode.70_1" nphases=1 basefreq=60 r1=0.6410 x1=0.0959 units=km normamps=128.10
New "Linecode.70_2" nphases=2 basefreq=60 r1=0.6410 x1=0.0959 units=km normamps=128.10
New "Linecode.70_3" nphases=3 basefreq=60 r1=0.6410 x1=0.0959 units=km normamps=128.10
New "Linecode.70_4" nphases=4 basefreq=60 r1=0.6410 x1=0.0959 units=km normamps=128.10

New "Linecode.70_P_1" nphases=1 basefreq=60 r1=0.6410 x1=0.0959 units=km normamps=128.10
New "Linecode.70_P_2" nphases=2 basefreq=60 r1=0.6410 x1=0.0959 units=km normamps=128.10
New "Linecode.70_P_3" nphases=3 basefreq=60 r1=0.6410 x1=0.0959 units=km normamps=128.10
New "Linecode.70_P_4" nphases=4 basefreq=60 r1=0.6410 x1=0.0959 units=km normamps=128.10

New "Linecode.71_1" nphases=1 basefreq=60 r1=0.8500 x1=0.4362 units=km normamps=216.30
New "Linecode.71_2" nphases=2 basefreq=60 r1=0.8500 x1=0.4362 units=km normamps=216.30
New "Linecode.71_3" nphases=3 basefreq=60 r1=0.8500 x1=0.4362 units=km normamps=216.30
New "Linecode.71_4" nphases=4 basefreq=60 r1=0.8500 x1=0.4362 units=km normamps=216.30

New "Linecode.71_P_1" nphases=1 basefreq=60 r1=0.8500 x1=0.4362 units=km normamps=216.30
New "Linecode.71_P_2" nphases=2 basefreq=60 r1=0.8500 x1=0.4362 units=km normamps=216.30
New "Linecode.71_P_3" nphases=3 basefreq=60 r1=0.8500 x1=0.4362 units=km normamps=216.30
New "Linecode.71_P_4" nphases=4 basefreq=60 r1=0.8500 x1=0.4362 units=km normamps=216.30

New "Linecode.73_1" nphases=1 basefreq=60 r1=0.8500 x1=0.4362 units=km normamps=216.30
New "Linecode.73_2" nphases=2 basefreq=60 r1=0.8500 x1=0.4362 units=km normamps=216.30
New "Linecode.73_3" nphases=3 basefreq=60 r1=0.8500 x1=0.4362 units=km normamps=216.30
New "Linecode.73_4" nphases=4 basefreq=60 r1=0.8500 x1=0.4362 units=km normamps=216.30

New "Linecode.73_P_1" nphases=1 basefreq=60 r1=0.8500 x1=0.4362 units=km normamps=216.30
New "Linecode.73_P_2" nphases=2 basefreq=60 r1=0.8500 x1=0.4362 units=km normamps=216.30
New "Linecode.73_P_3" nphases=3 basefreq=60 r1=0.8500 x1=0.4362 units=km normamps=216.30
New "Linecode.73_P_4" nphases=4 basefreq=60 r1=0.8500 x1=0.4362 units=km normamps=216.30

New "Linecode.74_1" nphases=1 basefreq=60 r1=0.6410 x1=0.0959 units=km normamps=128.10
New "Linecode.74_2" nphases=2 basefreq=60 r1=0.6410 x1=0.0959 units=km normamps=128.10
New "Linecode.74_3" nphases=3 basefreq=60 r1=0.6410 x1=0.0959 units=km normamps=128.10
New "Linecode.74_4" nphases=4 basefreq=60 r1=0.6410 x1=0.0959 units=km normamps=128.10

New "Linecode.74_P_1" nphases=1 basefreq=60 r1=0.6410 x1=0.0959 units=km normamps=128.10
New "Linecode.74_P_2" nphases=2 basefreq=60 r1=0.6410 x1=0.0959 units=km normamps=128.10
New "Linecode.74_P_3" nphases=3 basefreq=60 r1=0.6410 x1=0.0959 units=km normamps=128.10
New "Linecode.74_P_4" nphases=4 basefreq=60 r1=0.6410 x1=0.0959 units=km normamps=128.10

New "Linecode.75_1" nphases=1 basefreq=60 r1=0.5340 x1=0.4186 units=km normamps=286.65
New "Linecode.75_2" nphases=2 basefreq=60 r1=0.5340 x1=0.4186 units=km normamps=286.65
New "Linecode.75_3" nphases=3 basefreq=60 r1=0.5340 x1=0.4186 units=km normamps=286.65
New "Linecode.75_4" nphases=4 basefreq=60 r1=0.5340 x1=0.4186 units=km normamps=286.65

New "Linecode.75_P_1" nphases=1 basefreq=60 r1=0.5340 x1=0.4186 units=km normamps=286.65
New "Linecode.75_P_2" nphases=2 basefreq=60 r1=0.5340 x1=0.4186 units=km normamps=286.65
New "Linecode.75_P_3" nphases=3 basefreq=60 r1=0.5340 x1=0.4186 units=km normamps=286.65
New "Linecode.75_P_4" nphases=4 basefreq=60 r1=0.5340 x1=0.4186 units=km normamps=286.65

New "Linecode.76_1" nphases=1 basefreq=60 r1=0.5340 x1=0.4186 units=km normamps=286.65
New "Linecode.76_2" nphases=2 basefreq=60 r1=0.5340 x1=0.4186 units=km normamps=286.65
New "Linecode.76_3" nphases=3 basefreq=60 r1=0.5340 x1=0.4186 units=km normamps=286.65
New "Linecode.76_4" nphases=4 basefreq=60 r1=0.5340 x1=0.4186 units=km normamps=286.65

New "Linecode.76_P_1" nphases=1 basefreq=60 r1=0.5340 x1=0.4186 units=km normamps=286.65
New "Linecode.76_P_2" nphases=2 basefreq=60 r1=0.5340 x1=0.4186 units=km normamps=286.65
New "Linecode.76_P_3" nphases=3 basefreq=60 r1=0.5340 x1=0.4186 units=km normamps=286.65
New "Linecode.76_P_4" nphases=4 basefreq=60 r1=0.5340 x1=0.4186 units=km normamps=286.65

New "Linecode.77_1" nphases=1 basefreq=60 r1=0.5340 x1=0.4186 units=km normamps=286.65
New "Linecode.77_2" nphases=2 basefreq=60 r1=0.5340 x1=0.4186 units=km normamps=286.65
New "Linecode.77_3" nphases=3 basefreq=60 r1=0.5340 x1=0.4186 units=km normamps=286.65
New "Linecode.77_4" nphases=4 basefreq=60 r1=0.5340 x1=0.4186 units=km normamps=286.65

New "Linecode.77_P_1" nphases=1 basefreq=60 r1=0.5340 x1=0.4186 units=km normamps=286.65
New "Linecode.77_P_2" nphases=2 basefreq=60 r1=0.5340 x1=0.4186 units=km normamps=286.65
New "Linecode.77_P_3" nphases=3 basefreq=60 r1=0.5340 x1=0.4186 units=km normamps=286.65
New "Linecode.77_P_4" nphases=4 basefreq=60 r1=0.5340 x1=0.4186 units=km normamps=286.65

New "Linecode.78_1" nphases=1 basefreq=60 r1=1.3526 x1=0.4537 units=km normamps=163.80
New "Linecode.78_2" nphases=2 basefreq=60 r1=1.3526 x1=0.4537 units=km normamps=163.80
New "Linecode.78_3" nphases=3 basefreq=60 r1=1.3526 x1=0.4537 units=km normamps=163.80
New "Linecode.78_4" nphases=4 basefreq=60 r1=1.3526 x1=0.4537 units=km normamps=163.80

New "Linecode.78_P_1" nphases=1 basefreq=60 r1=1.3526 x1=0.4537 units=km normamps=163.80
New "Linecode.78_P_2" nphases=2 basefreq=60 r1=1.3526 x1=0.4537 units=km normamps=163.80
New "Linecode.78_P_3" nphases=3 basefreq=60 r1=1.3526 x1=0.4537 units=km normamps=163.80
New "Linecode.78_P_4" nphases=4 basefreq=60 r1=1.3526 x1=0.4537 units=km normamps=163.80

New "Linecode.79_1" nphases=1 basefreq=60 r1=0.4243 x1=0.4100 units=km normamps=327.60
New "Linecode.79_2" nphases=2 basefreq=60 r1=0.4243 x1=0.4100 units=km normamps=327.60
New "Linecode.79_3" nphases=3 basefreq=60 r1=0.4243 x1=0.4100 units=km normamps=327.60
New "Linecode.79_4" nphases=4 basefreq=60 r1=0.4243 x1=0.4100 units=km normamps=327.60

New "Linecode.79_P_1" nphases=1 basefreq=60 r1=0.4243 x1=0.4100 units=km normamps=327.60
New "Linecode.79_P_2" nphases=2 basefreq=60 r1=0.4243 x1=0.4100 units=km normamps=327.60
New "Linecode.79_P_3" nphases=3 basefreq=60 r1=0.4243 x1=0.4100 units=km normamps=327.60
New "Linecode.79_P_4" nphases=4 basefreq=60 r1=0.4243 x1=0.4100 units=km normamps=327.60

New "Linecode.80_1" nphases=1 basefreq=60 r1=1.3526 x1=0.4537 units=km normamps=163.80
New "Linecode.80_2" nphases=2 basefreq=60 r1=1.3526 x1=0.4537 units=km normamps=163.80
New "Linecode.80_3" nphases=3 basefreq=60 r1=1.3526 x1=0.4537 units=km normamps=163.80
New "Linecode.80_4" nphases=4 basefreq=60 r1=1.3526 x1=0.4537 units=km normamps=163.80

New "Linecode.80_P_1" nphases=1 basefreq=60 r1=1.3526 x1=0.4537 units=km normamps=163.80
New "Linecode.80_P_2" nphases=2 basefreq=60 r1=1.3526 x1=0.4537 units=km normamps=163.80
New "Linecode.80_P_3" nphases=3 basefreq=60 r1=1.3526 x1=0.4537 units=km normamps=163.80
New "Linecode.80_P_4" nphases=4 basefreq=60 r1=1.3526 x1=0.4537 units=km normamps=163.80

New "Linecode.81_1" nphases=1 basefreq=60 r1=0.8500 x1=0.4362 units=km normamps=216.30
New "Linecode.81_2" nphases=2 basefreq=60 r1=0.8500 x1=0.4362 units=km normamps=216.30
New "Linecode.81_3" nphases=3 basefreq=60 r1=0.8500 x1=0.4362 units=km normamps=216.30
New "Linecode.81_4" nphases=4 basefreq=60 r1=0.8500 x1=0.4362 units=km normamps=216.30

New "Linecode.81_P_1" nphases=1 basefreq=60 r1=0.8500 x1=0.4362 units=km normamps=216.30
New "Linecode.81_P_2" nphases=2 basefreq=60 r1=0.8500 x1=0.4362 units=km normamps=216.30
New "Linecode.81_P_3" nphases=3 basefreq=60 r1=0.8500 x1=0.4362 units=km normamps=216.30
New "Linecode.81_P_4" nphases=4 basefreq=60 r1=0.8500 x1=0.4362 units=km normamps=216.30

New "Linecode.83_1" nphases=1 basefreq=60 r1=1.3080 x1=0.1022 units=km normamps=76.65
New "Linecode.83_2" nphases=2 basefreq=60 r1=1.3080 x1=0.1022 units=km normamps=76.65
New "Linecode.83_3" nphases=3 basefreq=60 r1=1.3080 x1=0.1022 units=km normamps=76.65
New "Linecode.83_4" nphases=4 basefreq=60 r1=1.3080 x1=0.1022 units=km normamps=76.65

New "Linecode.83_P_1" nphases=1 basefreq=60 r1=1.3080 x1=0.1022 units=km normamps=76.65
New "Linecode.83_P_2" nphases=2 basefreq=60 r1=1.3080 x1=0.1022 units=km normamps=76.65
New "Linecode.83_P_3" nphases=3 basefreq=60 r1=1.3080 x1=0.1022 units=km normamps=76.65
New "Linecode.83_P_4" nphases=4 basefreq=60 r1=1.3080 x1=0.1022 units=km normamps=76.65

New "Linecode.84_1" nphases=1 basefreq=60 r1=0.5340 x1=0.4186 units=km normamps=286.65
New "Linecode.84_2" nphases=2 basefreq=60 r1=0.5340 x1=0.4186 units=km normamps=286.65
New "Linecode.84_3" nphases=3 basefreq=60 r1=0.5340 x1=0.4186 units=km normamps=286.65
New "Linecode.84_4" nphases=4 basefreq=60 r1=0.5340 x1=0.4186 units=km normamps=286.65

New "Linecode.84_P_1" nphases=1 basefreq=60 r1=0.5340 x1=0.4186 units=km normamps=286.65
New "Linecode.84_P_2" nphases=2 basefreq=60 r1=0.5340 x1=0.4186 units=km normamps=286.65
New "Linecode.84_P_3" nphases=3 basefreq=60 r1=0.5340 x1=0.4186 units=km normamps=286.65
New "Linecode.84_P_4" nphases=4 basefreq=60 r1=0.5340 x1=0.4186 units=km normamps=286.65

New "Linecode.85_1" nphases=1 basefreq=60 r1=1.3593 x1=0.4638 units=km normamps=162.75
New "Linecode.85_2" nphases=2 basefreq=60 r1=1.3593 x1=0.4638 units=km normamps=162.75
New "Linecode.85_3" nphases=3 basefreq=60 r1=1.3593 x1=0.4638 units=km normamps=162.75
New "Linecode.85_4" nphases=4 basefreq=60 r1=1.3593 x1=0.4638 units=km normamps=162.75

New "Linecode.85_P_1" nphases=1 basefreq=60 r1=1.3593 x1=0.4638 units=km normamps=162.75
New "Linecode.85_P_2" nphases=2 basefreq=60 r1=1.3593 x1=0.4638 units=km normamps=162.75
New "Linecode.85_P_3" nphases=3 basefreq=60 r1=1.3593 x1=0.4638 units=km normamps=162.75
New "Linecode.85_P_4" nphases=4 basefreq=60 r1=1.3593 x1=0.4638 units=km normamps=162.75

New "Linecode.86_1" nphases=1 basefreq=60 r1=1.3593 x1=0.4638 units=km normamps=162.75
New "Linecode.86_2" nphases=2 basefreq=60 r1=1.3593 x1=0.4638 units=km normamps=162.75
New "Linecode.86_3" nphases=3 basefreq=60 r1=1.3593 x1=0.4638 units=km normamps=162.75
New "Linecode.86_4" nphases=4 basefreq=60 r1=1.3593 x1=0.4638 units=km normamps=162.75

New "Linecode.86_P_1" nphases=1 basefreq=60 r1=1.3593 x1=0.4638 units=km normamps=162.75
New "Linecode.86_P_2" nphases=2 basefreq=60 r1=1.3593 x1=0.4638 units=km normamps=162.75
New "Linecode.86_P_3" nphases=3 basefreq=60 r1=1.3593 x1=0.4638 units=km normamps=162.75
New "Linecode.86_P_4" nphases=4 basefreq=60 r1=1.3593 x1=0.4638 units=km normamps=162.75

New "Linecode.87_1" nphases=1 basefreq=60 r1=0.8500 x1=0.4362 units=km normamps=216.30
New "Linecode.87_2" nphases=2 basefreq=60 r1=0.8500 x1=0.4362 units=km normamps=216.30
New "Linecode.87_3" nphases=3 basefreq=60 r1=0.8500 x1=0.4362 units=km normamps=216.30
New "Linecode.87_4" nphases=4 basefreq=60 r1=0.8500 x1=0.4362 units=km normamps=216.30

New "Linecode.87_P_1" nphases=1 basefreq=60 r1=0.8500 x1=0.4362 units=km normamps=216.30
New "Linecode.87_P_2" nphases=2 basefreq=60 r1=0.8500 x1=0.4362 units=km normamps=216.30
New "Linecode.87_P_3" nphases=3 basefreq=60 r1=0.8500 x1=0.4362 units=km normamps=216.30
New "Linecode.87_P_4" nphases=4 basefreq=60 r1=0.8500 x1=0.4362 units=km normamps=216.30

New "Linecode.88_1" nphases=1 basefreq=60 r1=0.8540 x1=0.4462 units=km normamps=218.40
New "Linecode.88_2" nphases=2 basefreq=60 r1=0.8540 x1=0.4462 units=km normamps=218.40
New "Linecode.88_3" nphases=3 basefreq=60 r1=0.8540 x1=0.4462 units=km normamps=218.40
New "Linecode.88_4" nphases=4 basefreq=60 r1=0.8540 x1=0.4462 units=km normamps=218.40

New "Linecode.88_P_1" nphases=1 basefreq=60 r1=0.8540 x1=0.4462 units=km normamps=218.40
New "Linecode.88_P_2" nphases=2 basefreq=60 r1=0.8540 x1=0.4462 units=km normamps=218.40
New "Linecode.88_P_3" nphases=3 basefreq=60 r1=0.8540 x1=0.4462 units=km normamps=218.40
New "Linecode.88_P_4" nphases=4 basefreq=60 r1=0.8540 x1=0.4462 units=km normamps=218.40

New "Linecode.90_1" nphases=1 basefreq=60 r1=2.1532 x1=0.4712 units=km normamps=123.90
New "Linecode.90_2" nphases=2 basefreq=60 r1=2.1532 x1=0.4712 units=km normamps=123.90
New "Linecode.90_3" nphases=3 basefreq=60 r1=2.1532 x1=0.4712 units=km normamps=123.90
New "Linecode.90_4" nphases=4 basefreq=60 r1=2.1532 x1=0.4712 units=km normamps=123.90

New "Linecode.90_P_1" nphases=1 basefreq=60 r1=2.1532 x1=0.4712 units=km normamps=123.90
New "Linecode.90_P_2" nphases=2 basefreq=60 r1=2.1532 x1=0.4712 units=km normamps=123.90
New "Linecode.90_P_3" nphases=3 basefreq=60 r1=2.1532 x1=0.4712 units=km normamps=123.90
New "Linecode.90_P_4" nphases=4 basefreq=60 r1=2.1532 x1=0.4712 units=km normamps=123.90

New "Linecode.91_1" nphases=1 basefreq=60 r1=0.8500 x1=0.4362 units=km normamps=216.30
New "Linecode.91_2" nphases=2 basefreq=60 r1=0.8500 x1=0.4362 units=km normamps=216.30
New "Linecode.91_3" nphases=3 basefreq=60 r1=0.8500 x1=0.4362 units=km normamps=216.30
New "Linecode.91_4" nphases=4 basefreq=60 r1=0.8500 x1=0.4362 units=km normamps=216.30

New "Linecode.91_P_1" nphases=1 basefreq=60 r1=0.8500 x1=0.4362 units=km normamps=216.30
New "Linecode.91_P_2" nphases=2 basefreq=60 r1=0.8500 x1=0.4362 units=km normamps=216.30
New "Linecode.91_P_3" nphases=3 basefreq=60 r1=0.8500 x1=0.4362 units=km normamps=216.30
New "Linecode.91_P_4" nphases=4 basefreq=60 r1=0.8500 x1=0.4362 units=km normamps=216.30

New "Linecode.92_1" nphases=1 basefreq=60 r1=0.8500 x1=0.4362 units=km normamps=216.30
New "Linecode.92_2" nphases=2 basefreq=60 r1=0.8500 x1=0.4362 units=km normamps=216.30
New "Linecode.92_3" nphases=3 basefreq=60 r1=0.8500 x1=0.4362 units=km normamps=216.30
New "Linecode.92_4" nphases=4 basefreq=60 r1=0.8500 x1=0.4362 units=km normamps=216.30

New "Linecode.92_P_1" nphases=1 basefreq=60 r1=0.8500 x1=0.4362 units=km normamps=216.30
New "Linecode.92_P_2" nphases=2 basefreq=60 r1=0.8500 x1=0.4362 units=km normamps=216.30
New "Linecode.92_P_3" nphases=3 basefreq=60 r1=0.8500 x1=0.4362 units=km normamps=216.30
New "Linecode.92_P_4" nphases=4 basefreq=60 r1=0.8500 x1=0.4362 units=km normamps=216.30

New "Linecode.93_1" nphases=1 basefreq=60 r1=0.8540 x1=0.4462 units=km normamps=218.40
New "Linecode.93_2" nphases=2 basefreq=60 r1=0.8540 x1=0.4462 units=km normamps=218.40
New "Linecode.93_3" nphases=3 basefreq=60 r1=0.8540 x1=0.4462 units=km normamps=218.40
New "Linecode.93_4" nphases=4 basefreq=60 r1=0.8540 x1=0.4462 units=km normamps=218.40

New "Linecode.93_P_1" nphases=1 basefreq=60 r1=0.8540 x1=0.4462 units=km normamps=218.40
New "Linecode.93_P_2" nphases=2 basefreq=60 r1=0.8540 x1=0.4462 units=km normamps=218.40
New "Linecode.93_P_3" nphases=3 basefreq=60 r1=0.8540 x1=0.4462 units=km normamps=218.40
New "Linecode.93_P_4" nphases=4 basefreq=60 r1=0.8540 x1=0.4462 units=km normamps=218.40

New "Linecode.94_1" nphases=1 basefreq=60 r1=2.1532 x1=0.4712 units=km normamps=123.90
New "Linecode.94_2" nphases=2 basefreq=60 r1=2.1532 x1=0.4712 units=km normamps=123.90
New "Linecode.94_3" nphases=3 basefreq=60 r1=2.1532 x1=0.4712 units=km normamps=123.90
New "Linecode.94_4" nphases=4 basefreq=60 r1=2.1532 x1=0.4712 units=km normamps=123.90

New "Linecode.94_P_1" nphases=1 basefreq=60 r1=2.1532 x1=0.4712 units=km normamps=123.90
New "Linecode.94_P_2" nphases=2 basefreq=60 r1=2.1532 x1=0.4712 units=km normamps=123.90
New "Linecode.94_P_3" nphases=3 basefreq=60 r1=2.1532 x1=0.4712 units=km normamps=123.90
New "Linecode.94_P_4" nphases=4 basefreq=60 r1=2.1532 x1=0.4712 units=km normamps=123.90

New "Linecode.95_1" nphases=1 basefreq=60 r1=0.2530 x1=0.0916 units=km normamps=240.45
New "Linecode.95_2" nphases=2 basefreq=60 r1=0.2530 x1=0.0916 units=km normamps=240.45
New "Linecode.95_3" nphases=3 basefreq=60 r1=0.2530 x1=0.0916 units=km normamps=240.45
New "Linecode.95_4" nphases=4 basefreq=60 r1=0.2530 x1=0.0916 units=km normamps=240.45

New "Linecode.95_P_1" nphases=1 basefreq=60 r1=0.2530 x1=0.0916 units=km normamps=240.45
New "Linecode.95_P_2" nphases=2 basefreq=60 r1=0.2530 x1=0.0916 units=km normamps=240.45
New "Linecode.95_P_3" nphases=3 basefreq=60 r1=0.2530 x1=0.0916 units=km normamps=240.45
New "Linecode.95_P_4" nphases=4 basefreq=60 r1=0.2530 x1=0.0916 units=km normamps=240.45

New "Linecode.96_1" nphases=1 basefreq=60 r1=0.6410 x1=0.0959 units=km normamps=128.10
New "Linecode.96_2" nphases=2 basefreq=60 r1=0.6410 x1=0.0959 units=km normamps=128.10
New "Linecode.96_3" nphases=3 basefreq=60 r1=0.6410 x1=0.0959 units=km normamps=128.10
New "Linecode.96_4" nphases=4 basefreq=60 r1=0.6410 x1=0.0959 units=km normamps=128.10

New "Linecode.96_P_1" nphases=1 basefreq=60 r1=0.6410 x1=0.0959 units=km normamps=128.10
New "Linecode.96_P_2" nphases=2 basefreq=60 r1=0.6410 x1=0.0959 units=km normamps=128.10
New "Linecode.96_P_3" nphases=3 basefreq=60 r1=0.6410 x1=0.0959 units=km normamps=128.10
New "Linecode.96_P_4" nphases=4 basefreq=60 r1=0.6410 x1=0.0959 units=km normamps=128.10

...