packages/py-dss-toolkit/py_dss_toolkit-0.4.0.tar.gz/py_dss_toolkit-0.4.0/examples/feeders/1_3PAS_1/TransformadorMTMTMTBT_202312598_1_3PAS_1_------1-----.dss
New "Transformer.TRF_28_3314A" phases=1 windings=3 buses=["MRT_55641TRF_28_3314A.3" "ET28_3314.1.4" "ET28_3314.4.2" ] conns=[Wye Wye Wye] kvs=[13.3367912182804 0.22 0.22]  kvas=[15 15 15] %loadloss=1.766667 %noloadloss=0.433333
New "Reactor.TRF_28_3314A_R" phases=1 bus1=ET28_3314.4 R=15 X=0 basefreq=60
New "Linecode.LC_MRT_TRF_28_3314A_1" nphases=1 basefreq=60 r1=15000 x1=0 units=km normamps=0
New "Linecode.LC_MRT_TRF_28_3314A_2" nphases=2 basefreq=60 r1=15000 x1=0 units=km normamps=0
New "Linecode.LC_MRT_TRF_28_3314A_3" nphases=3 basefreq=60 r1=15000 x1=0 units=km normamps=0
New "Linecode.LC_MRT_TRF_28_3314A_4" nphases=4 basefreq=60 r1=15000 x1=0 units=km normamps=0
New "Line.Resist_MTR_TRF_28_3314A" phases=1 bus1="55641.3" bus2="MRT_55641TRF_28_3314A.3" linecode="LC_MRT_TRF_28_3314A_1" length=0.001 units=km 

New "Transformer.TRF_28_701A" phases=1 windings=3 buses=["MRT_12371TRF_28_701A.1" "ET28_701.1.4" "ET28_701.4.2" ] conns=[Wye Wye Wye] kvs=[13.3367912182804 0.22 0.22]  kvas=[25 25 25] %loadloss=1.560000 %noloadloss=0.360000
New "Reactor.TRF_28_701A_R" phases=1 bus1=ET28_701.4 R=15 X=0 basefreq=60
New "Linecode.LC_MRT_TRF_28_701A_1" nphases=1 basefreq=60 r1=15000 x1=0 units=km normamps=0
New "Linecode.LC_MRT_TRF_28_701A_2" nphases=2 basefreq=60 r1=15000 x1=0 units=km normamps=0
New "Linecode.LC_MRT_TRF_28_701A_3" nphases=3 basefreq=60 r1=15000 x1=0 units=km normamps=0
New "Linecode.LC_MRT_TRF_28_701A_4" nphases=4 basefreq=60 r1=15000 x1=0 units=km normamps=0
New "Line.Resist_MTR_TRF_28_701A" phases=1 bus1="12371.1" bus2="MRT_12371TRF_28_701A.1" linecode="LC_MRT_TRF_28_701A_1" length=0.001 units=km 

New "Transformer.TRF_28_6574A" phases=1 windings=3 buses=["MRT_824851TRF_28_6574A.3" "ET28_6574.1.4" "ET28_6574.4.2" ] conns=[Wye Wye Wye] kvs=[13.3367912182804 0.22 0.22]  kvas=[15 15 15] %loadloss=1.766667 %noloadloss=0.433333
New "Reactor.TRF_28_6574A_R" phases=1 bus1=ET28_6574.4 R=15 X=0 basefreq=60
New "Linecode.LC_MRT_TRF_28_6574A_1" nphases=1 basefreq=60 r1=15000 x1=0 units=km normamps=0
New "Linecode.LC_MRT_TRF_28_6574A_2" nphases=2 basefreq=60 r1=15000 x1=0 units=km normamps=0
New "Linecode.LC_MRT_TRF_28_6574A_3" nphases=3 basefreq=60 r1=15000 x1=0 units=km normamps=0
New "Linecode.LC_MRT_TRF_28_6574A_4" nphases=4 basefreq=60 r1=15000 x1=0 units=km normamps=0
New "Line.Resist_MTR_TRF_28_6574A" phases=1 bus1="824851.3" bus2="MRT_824851TRF_28_6574A.3" linecode="LC_MRT_TRF_28_6574A_1" length=0.001 units=km 

New "Transformer.TRF_28_654A" phases=1 windings=3 buses=["MRT_21171TRF_28_654A.1" "ET28_654.1.4" "ET28_654.4.2" ] conns=[Wye Wye Wye] kvs=[13.3367912182804 0.22 0.22]  kvas=[15 15 15] %loadloss=1.766667 %noloadloss=0.433333
New "Reactor.TRF_28_654A_R" phases=1 bus1=ET28_654.4 R=15 X=0 basefreq=60
New "Linecode.LC_MRT_TRF_28_654A_1" nphases=1 basefreq=60 r1=15000 x1=0 units=km normamps=0
New "Linecode.LC_MRT_TRF_28_654A_2" nphases=2 basefreq=60 r1=15000 x1=0 units=km normamps=0
New "Linecode.LC_MRT_TRF_28_654A_3" nphases=3 basefreq=60 r1=15000 x1=0 units=km normamps=0
New "Linecode.LC_MRT_TRF_28_654A_4" nphases=4 basefreq=60 r1=15000 x1=0 units=km normamps=0
New "Line.Resist_MTR_TRF_28_654A" phases=1 bus1="21171.1" bus2="MRT_21171TRF_28_654A.1" linecode="LC_MRT_TRF_28_654A_1" length=0.001 units=km 

New "Transformer.TRF_28_3058A" phases=1 windings=3 buses=["MRT_59281TRF_28_3058A.3" "ET28_3058.1.4" "ET28_3058.4.2" ] conns=[Wye Wye Wye] kvs=[13.3367912182804 0.22 0.22]  kvas=[10 10 10] %loadloss=1.950000 %noloadloss=0.500000
New "Reactor.TRF_28_3058A_R" phases=1 bus1=ET28_3058.4 R=15 X=0 basefreq=60
New "Linecode.LC_MRT_TRF_28_3058A_1" nphases=1 basefreq=60 r1=15000 x1=0 units=km normamps=0
New "Linecode.LC_MRT_TRF_28_3058A_2" nphases=2 basefreq=60 r1=15000 x1=0 units=km normamps=0
New "Linecode.LC_MRT_TRF_28_3058A_3" nphases=3 basefreq=60 r1=15000 x1=0 units=km normamps=0
New "Linecode.LC_MRT_TRF_28_3058A_4" nphases=4 basefreq=60 r1=15000 x1=0 units=km normamps=0
New "Line.Resist_MTR_TRF_28_3058A" phases=1 bus1="59281.3" bus2="MRT_59281TRF_28_3058A.3" linecode="LC_MRT_TRF_28_3058A_1" length=0.001 units=km 

New "Transformer.TRF_28_5205A" phases=1 windings=3 buses=["MRT_675941TRF_28_5205A.1" "ET28_5205.1.4" "ET28_5205.4.2" ] conns=[Wye Wye Wye] kvs=[13.3367912182804 0.22 0.22]  kvas=[25 25 25] %loadloss=1.560000 %noloadloss=0.360000
New "Reactor.TRF_28_5205A_R" phases=1 bus1=ET28_5205.4 R=15 X=0 basefreq=60
New "Linecode.LC_MRT_TRF_28_5205A_1" nphases=1 basefreq=60 r1=15000 x1=0 units=km normamps=0
New "Linecode.LC_MRT_TRF_28_5205A_2" nphases=2 basefreq=60 r1=15000 x1=0 units=km normamps=0
New "Linecode.LC_MRT_TRF_28_5205A_3" nphases=3 basefreq=60 r1=15000 x1=0 units=km normamps=0
New "Linecode.LC_MRT_TRF_28_5205A_4" nphases=4 basefreq=60 r1=15000 x1=0 units=km normamps=0
New "Line.Resist_MTR_TRF_28_5205A" phases=1 bus1="675941.1" bus2="MRT_675941TRF_28_5205A.1" linecode="LC_MRT_TRF_28_5205A_1" length=0.001 units=km 

New "Transformer.TRF_28_5431A" phases=1 windings=3 buses=["MRT_693361TRF_28_5431A.1" "ET28_5431.1.4" "ET28_5431.4.2" ] conns=[Wye Wye Wye] kvs=[13.3367912182804 0.22 0.22]  kvas=[15 15 15] %loadloss=1.766667 %noloadloss=0.433333
New "Reactor.TRF_28_5431A_R" phases=1 bus1=ET28_5431.4 R=15 X=0 basefreq=60
New "Linecode.LC_MRT_TRF_28_5431A_1" nphases=1 basefreq=60 r1=15000 x1=0 units=km normamps=0
New "Linecode.LC_MRT_TRF_28_5431A_2" nphases=2 basefreq=60 r1=15000 x1=0 units=km normamps=0
New "Linecode.LC_MRT_TRF_28_5431A_3" nphases=3 basefreq=60 r1=15000 x1=0 units=km normamps=0
New "Linecode.LC_MRT_TRF_28_5431A_4" nphases=4 basefreq=60 r1=15000 x1=0 units=km normamps=0
New "Line.Resist_MTR_TRF_28_5431A" phases=1 bus1="693361.1" bus2="MRT_693361TRF_28_5431A.1" linecode="LC_MRT_TRF_28_5431A_1" length=0.001 units=km 

New "Transformer.TRF_28_5324A" phases=3 windings=2 buses=["685301.1.2.3" "ET28_5324.1.2.3.4"] conns=[Delta Wye] kvs=[23.1 0.38]  kvas=[30 30] %loadloss=2.100000 %noloadloss=0.533333
New "Reactor.TRF_28_5324A_R" phases=1 bus1=ET28_5324.4 R=15 X=0 basefreq=60

New "Transformer.TRF_28_5168A" phases=3 windings=2 buses=["740951.1.2.3" "ET28_5168.1.2.3.4"] conns=[Delta Wye] kvs=[23.1 0.38]  kvas=[45 45] %loadloss=1.866667 %noloadloss=0.477778
New "Reactor.TRF_28_5168A_R" phases=1 bus1=ET28_5168.4 R=15 X=0 basefreq=60

New "Transformer.TRF_28_5100A" phases=1 windings=3 buses=["MRT_141561TRF_28_5100A.1" "ET28_5100.1.4" "ET28_5100.4.2" ] conns=[Wye Wye Wye] kvs=[13.3367912182804 0.22 0.22]  kvas=[10 10 10] %loadloss=1.950000 %noloadloss=0.500000
New "Reactor.TRF_28_5100A_R" phases=1 bus1=ET28_5100.4 R=15 X=0 basefreq=60
New "Linecode.LC_MRT_TRF_28_5100A_1" nphases=1 basefreq=60 r1=15000 x1=0 units=km normamps=0
New "Linecode.LC_MRT_TRF_28_5100A_2" nphases=2 basefreq=60 r1=15000 x1=0 units=km normamps=0
New "Linecode.LC_MRT_TRF_28_5100A_3" nphases=3 basefreq=60 r1=15000 x1=0 units=km normamps=0
New "Linecode.LC_MRT_TRF_28_5100A_4" nphases=4 basefreq=60 r1=15000 x1=0 units=km normamps=0
New "Line.Resist_MTR_TRF_28_5100A" phases=1 bus1="141561.1" bus2="MRT_141561TRF_28_5100A.1" linecode="LC_MRT_TRF_28_5100A_1" length=0.001 units=km 

New "Transformer.TRF_17_4963A" phases=1 windings=2 buses=["MRT_325671TRF_17_4963A.1" "ET17_4963.1.4"] conns=[Wye Wye] kvs=[13.3367912182804 0.22]  kvas=[3 3] %loadloss=3.500000 %noloadloss=1.166667
New "Reactor.TRF_17_4963A_R" phases=1 bus1=ET17_4963.4 R=15 X=0 basefreq=60
New "Linecode.LC_MRT_TRF_17_4963A_1" nphases=1 basefreq=60 r1=15000 x1=0 units=km normamps=0
New "Linecode.LC_MRT_TRF_17_4963A_2" nphases=2 basefreq=60 r1=15000 x1=0 units=km normamps=0
New "Linecode.LC_MRT_TRF_17_4963A_3" nphases=3 basefreq=60 r1=15000 x1=0 units=km normamps=0
New "Linecode.LC_MRT_TRF_17_4963A_4" nphases=4 basefreq=60 r1=15000 x1=0 units=km normamps=0
New "Line.Resist_MTR_TRF_17_4963A" phases=1 bus1="325671.1" bus2="MRT_325671TRF_17_4963A.1" linecode="LC_MRT_TRF_17_4963A_1" length=0.001 units=km 

New "Transformer.TRF_28_4900A" phases=1 windings=3 buses=["MRT_38641TRF_28_4900A.1" "ET28_4900.1.4" "ET28_4900.4.2" ] conns=[Wye Wye Wye] kvs=[13.3367912182804 0.22 0.22]  kvas=[10 10 10] %loadloss=1.950000 %noloadloss=0.500000
New "Reactor.TRF_28_4900A_R" phases=1 bus1=ET28_4900.4 R=15 X=0 basefreq=60
New "Linecode.LC_MRT_TRF_28_4900A_1" nphases=1 basefreq=60 r1=15000 x1=0 units=km normamps=0
New "Linecode.LC_MRT_TRF_28_4900A_2" nphases=2 basefreq=60 r1=15000 x1=0 units=km normamps=0
New "Linecode.LC_MRT_TRF_28_4900A_3" nphases=3 basefreq=60 r1=15000 x1=0 units=km normamps=0
New "Linecode.LC_MRT_TRF_28_4900A_4" nphases=4 basefreq=60 r1=15000 x1=0 units=km normamps=0
New "Line.Resist_MTR_TRF_28_4900A" phases=1 bus1="38641.1" bus2="MRT_38641TRF_28_4900A.1" linecode="LC_MRT_TRF_28_4900A_1" length=0.001 units=km 

New "Transformer.TRF_28_4828A" phases=1 windings=3 buses=["MRT_717741TRF_28_4828A.3" "ET28_4828.1.4" "ET28_4828.4.2" ] conns=[Wye Wye Wye] kvs=[13.3367912182804 0.22 0.22]  kvas=[10 10 10] %loadloss=1.950000 %noloadloss=0.500000
New "Reactor.TRF_28_4828A_R" phases=1 bus1=ET28_4828.4 R=15 X=0 basefreq=60
New "Linecode.LC_MRT_TRF_28_4828A_1" nphases=1 basefreq=60 r1=15000 x1=0 units=km normamps=0
New "Linecode.LC_MRT_TRF_28_4828A_2" nphases=2 basefreq=60 r1=15000 x1=0 units=km normamps=0
New "Linecode.LC_MRT_TRF_28_4828A_3" nphases=3 basefreq=60 r1=15000 x1=0 units=km normamps=0
New "Linecode.LC_MRT_TRF_28_4828A_4" nphases=4 basefreq=60 r1=15000 x1=0 units=km normamps=0
New "Line.Resist_MTR_TRF_28_4828A" phases=1 bus1="717741.3" bus2="MRT_717741TRF_28_4828A.3" linecode="LC_MRT_TRF_28_4828A_1" length=0.001 units=km 

New "Transformer.TRF_28_4874A" phases=1 windings=3 buses=["MRT_43811TRF_28_4874A.2" "ET28_4874.1.4" "ET28_4874.4.2" ] conns=[Wye Wye Wye] kvs=[13.3367912182804 0.22 0.22]  kvas=[15 15 15] %loadloss=1.766667 %noloadloss=0.433333
New "Reactor.TRF_28_4874A_R" phases=1 bus1=ET28_4874.4 R=15 X=0 basefreq=60
New "Linecode.LC_MRT_TRF_28_4874A_1" nphases=1 basefreq=60 r1=15000 x1=0 units=km normamps=0
New "Linecode.LC_MRT_TRF_28_4874A_2" nphases=2 basefreq=60 r1=15000 x1=0 units=km normamps=0
New "Linecode.LC_MRT_TRF_28_4874A_3" nphases=3 basefreq=60 r1=15000 x1=0 units=km normamps=0
New "Linecode.LC_MRT_TRF_28_4874A_4" nphases=4 basefreq=60 r1=15000 x1=0 units=km normamps=0
New "Line.Resist_MTR_TRF_28_4874A" phases=1 bus1="43811.2" bus2="MRT_43811TRF_28_4874A.2" linecode="LC_MRT_TRF_28_4874A_1" length=0.001 units=km 

New "Transformer.TRF_28_1120A" phases=1 windings=3 buses=["MRT_38721TRF_28_1120A.1" "ET28_1120.1.4" "ET28_1120.4.2" ] conns=[Wye Wye Wye] kvs=[13.3367912182804 0.22 0.22]  kvas=[10 10 10] %loadloss=1.950000 %noloadloss=0.500000
New "Reactor.TRF_28_1120A_R" phases=1 bus1=ET28_1120.4 R=15 X=0 basefreq=60
New "Linecode.LC_MRT_TRF_28_1120A_1" nphases=1 basefreq=60 r1=15000 x1=0 units=km normamps=0
New "Linecode.LC_MRT_TRF_28_1120A_2" nphases=2 basefreq=60 r1=15000 x1=0 units=km normamps=0
New "Linecode.LC_MRT_TRF_28_1120A_3" nphases=3 basefreq=60 r1=15000 x1=0 units=km normamps=0
New "Linecode.LC_MRT_TRF_28_1120A_4" nphases=4 basefreq=60 r1=15000 x1=0 units=km normamps=0
New "Line.Resist_MTR_TRF_28_1120A" phases=1 bus1="38721.1" bus2="MRT_38721TRF_28_1120A.1" linecode="LC_MRT_TRF_28_1120A_1" length=0.001 units=km 

New "Transformer.TRF_28_4801A" phases=1 windings=3 buses=["MRT_719591TRF_28_4801A.3" "ET28_4801.1.4" "ET28_4801.4.2" ] conns=[Wye Wye Wye] kvs=[13.3367912182804 0.22 0.22]  kvas=[25 25 25] %loadloss=1.560000 %noloadloss=0.360000
New "Reactor.TRF_28_4801A_R" phases=1 bus1=ET28_4801.4 R=15 X=0 basefreq=60
New "Linecode.LC_MRT_TRF_28_4801A_1" nphases=1 basefreq=60 r1=15000 x1=0 units=km normamps=0
New "Linecode.LC_MRT_TRF_28_4801A_2" nphases=2 basefreq=60 r1=15000 x1=0 units=km normamps=0
New "Linecode.LC_MRT_TRF_28_4801A_3" nphases=3 basefreq=60 r1=15000 x1=0 units=km normamps=0
New "Linecode.LC_MRT_TRF_28_4801A_4" nphases=4 basefreq=60 r1=15000 x1=0 units=km normamps=0
New "Line.Resist_MTR_TRF_28_4801A" phases=1 bus1="719591.3" bus2="MRT_719591TRF_28_4801A.3" linecode="LC_MRT_TRF_28_4801A_1" length=0.001 units=km 

New "Transformer.TRF_28_631A" phases=1 windings=3 buses=["MRT_43031TRF_28_631A.1" "ET28_631.1.4" "ET28_631.4.2" ] conns=[Wye Wye Wye] kvs=[13.3367912182804 0.22 0.22]  kvas=[25 25 25] %loadloss=1.560000 %noloadloss=0.360000
New "Reactor.TRF_28_631A_R" phases=1 bus1=ET28_631.4 R=15 X=0 basefreq=60
New "Linecode.LC_MRT_TRF_28_631A_1" nphases=1 basefreq=60 r1=15000 x1=0 units=km normamps=0
New "Linecode.LC_MRT_TRF_28_631A_2" nphases=2 basefreq=60 r1=15000 x1=0 units=km normamps=0
New "Linecode.LC_MRT_TRF_28_631A_3" nphases=3 basefreq=60 r1=15000 x1=0 units=km normamps=0
New "Linecode.LC_MRT_TRF_28_631A_4" nphases=4 basefreq=60 r1=15000 x1=0 units=km normamps=0
New "Line.Resist_MTR_TRF_28_631A" phases=1 bus1="43031.1" bus2="MRT_43031TRF_28_631A.1" linecode="LC_MRT_TRF_28_631A_1" length=0.001 units=km 

New "Transformer.TRF_28_3397A" phases=1 windings=3 buses=["MRT_199761TRF_28_3397A.1" "ET28_3397.1.4" "ET28_3397.4.2" ] conns=[Wye Wye Wye] kvs=[13.3367912182804 0.22 0.22]  kvas=[10 10 10] %loadloss=1.950000 %noloadloss=0.500000
New "Reactor.TRF_28_3397A_R" phases=1 bus1=ET28_3397.4 R=15 X=0 basefreq=60
New "Linecode.LC_MRT_TRF_28_3397A_1" nphases=1 basefreq=60 r1=15000 x1=0 units=km normamps=0
New "Linecode.LC_MRT_TRF_28_3397A_2" nphases=2 basefreq=60 r1=15000 x1=0 units=km normamps=0
New "Linecode.LC_MRT_TRF_28_3397A_3" nphases=3 basefreq=60 r1=15000 x1=0 units=km normamps=0
New "Linecode.LC_MRT_TRF_28_3397A_4" nphases=4 basefreq=60 r1=15000 x1=0 units=km normamps=0
New "Line.Resist_MTR_TRF_28_3397A" phases=1 bus1="199761.1" bus2="MRT_199761TRF_28_3397A.1" linecode="LC_MRT_TRF_28_3397A_1" length=0.001 units=km 

New "Transformer.TRF_28_5380A" phases=1 windings=3 buses=["MRT_72491TRF_28_5380A.1" "ET28_5380.1.4" "ET28_5380.4.2" ] conns=[Wye Wye Wye] kvs=[13.3367912182804 0.22 0.22]  kvas=[10 10 10] %loadloss=1.950000 %noloadloss=0.500000
New "Reactor.TRF_28_5380A_R" phases=1 bus1=ET28_5380.4 R=15 X=0 basefreq=60
New "Linecode.LC_MRT_TRF_28_5380A_1" nphases=1 basefreq=60 r1=15000 x1=0 units=km normamps=0
New "Linecode.LC_MRT_TRF_28_5380A_2" nphases=2 basefreq=60 r1=15000 x1=0 units=km normamps=0
New "Linecode.LC_MRT_TRF_28_5380A_3" nphases=3 basefreq=60 r1=15000 x1=0 units=km normamps=0
New "Linecode.LC_MRT_TRF_28_5380A_4" nphases=4 basefreq=60 r1=15000 x1=0 units=km normamps=0
New "Line.Resist_MTR_TRF_28_5380A" phases=1 bus1="72491.1" bus2="MRT_72491TRF_28_5380A.1" linecode="LC_MRT_TRF_28_5380A_1" length=0.001 units=km 

New "Transformer.TRF_28_4545A" phases=1 windings=3 buses=["MRT_719421TRF_28_4545A.3" "ET28_4545.1.4" "ET28_4545.4.2" ] conns=[Wye Wye Wye] kvs=[13.3367912182804 0.22 0.22]  kvas=[25 25 25] %loadloss=1.560000 %noloadloss=0.360000
New "Reactor.TRF_28_4545A_R" phases=1 bus1=ET28_4545.4 R=15 X=0 basefreq=60
New "Linecode.LC_MRT_TRF_28_4545A_1" nphases=1 basefreq=60 r1=15000 x1=0 units=km normamps=0
New "Linecode.LC_MRT_TRF_28_4545A_2" nphases=2 basefreq=60 r1=15000 x1=0 units=km normamps=0
New "Linecode.LC_MRT_TRF_28_4545A_3" nphases=3 basefreq=60 r1=15000 x1=0 units=km normamps=0
New "Linecode.LC_MRT_TRF_28_4545A_4" nphases=4 basefreq=60 r1=15000 x1=0 units=km normamps=0
New "Line.Resist_MTR_TRF_28_4545A" phases=1 bus1="719421.3" bus2="MRT_719421TRF_28_4545A.3" linecode="LC_MRT_TRF_28_4545A_1" length=0.001 units=km 

New "Transformer.TRF_28_700A" phases=1 windings=3 buses=["MRT_13031TRF_28_700A.3" "ET28_700.1.4" "ET28_700.4.2" ] conns=[Wye Wye Wye] kvs=[13.3367912182804 0.22 0.22]  kvas=[37.5 37.5 37.5] %loadloss=1.413333 %noloadloss=0.360000
New "Reactor.TRF_28_700A_R" phases=1 bus1=ET28_700.4 R=15 X=0 basefreq=60
New "Linecode.LC_MRT_TRF_28_700A_1" nphases=1 basefreq=60 r1=15000 x1=0 units=km normamps=0
New "Linecode.LC_MRT_TRF_28_700A_2" nphases=2 basefreq=60 r1=15000 x1=0 units=km normamps=0
New "Linecode.LC_MRT_TRF_28_700A_3" nphases=3 basefreq=60 r1=15000 x1=0 units=km normamps=0
New "Linecode.LC_MRT_TRF_28_700A_4" nphases=4 basefreq=60 r1=15000 x1=0 units=km normamps=0
New "Line.Resist_MTR_TRF_28_700A" phases=1 bus1="13031.3" bus2="MRT_13031TRF_28_700A.3" linecode="LC_MRT_TRF_28_700A_1" length=0.001 units=km 

New "Transformer.TRF_28_2706A" phases=3 windings=2 buses=["753871.1.2.3" "ET28_2706.1.2.3.4"] conns=[Delta Wye] kvs=[23.1 0.38]  kvas=[30 30] %loadloss=2.100000 %noloadloss=0.533333
New "Reactor.TRF_28_2706A_R" phases=1 bus1=ET28_2706.4 R=15 X=0 basefreq=60

New "Transformer.TRF_28_4965A" phases=1 windings=3 buses=["MRT_42881TRF_28_4965A.2" "ET28_4965.1.4" "ET28_4965.4.2" ] conns=[Wye Wye Wye] kvs=[13.3367912182804 0.22 0.22]  kvas=[10 10 10] %loadloss=1.950000 %noloadloss=0.500000
New "Reactor.TRF_28_4965A_R" phases=1 bus1=ET28_4965.4 R=15 X=0 basefreq=60
New "Linecode.LC_MRT_TRF_28_4965A_1" nphases=1 basefreq=60 r1=15000 x1=0 units=km normamps=0
New "Linecode.LC_MRT_TRF_28_4965A_2" nphases=2 basefreq=60 r1=15000 x1=0 units=km normamps=0
New "Linecode.LC_MRT_TRF_28_4965A_3" nphases=3 basefreq=60 r1=15000 x1=0 units=km normamps=0
New "Linecode.LC_MRT_TRF_28_4965A_4" nphases=4 basefreq=60 r1=15000 x1=0 units=km normamps=0
New "Line.Resist_MTR_TRF_28_4965A" phases=1 bus1="42881.2" bus2="MRT_42881TRF_28_4965A.2" linecode="LC_MRT_TRF_28_4965A_1" length=0.001 units=km 

New "Transformer.TRF_28_637A" phases=1 windings=3 buses=["MRT_325691TRF_28_637A.1" "ET28_637.1.4" "ET28_637.4.2" ] conns=[Wye Wye Wye] kvs=[13.3367912182804 0.22 0.22]  kvas=[15 15 15] %loadloss=1.766667 %noloadloss=0.433333
New "Reactor.TRF_28_637A_R" phases=1 bus1=ET28_637.4 R=15 X=0 basefreq=60
New "Linecode.LC_MRT_TRF_28_637A_1" nphases=1 basefreq=60 r1=15000 x1=0 units=km normamps=0
New "Linecode.LC_MRT_TRF_28_637A_2" nphases=2 basefreq=60 r1=15000 x1=0 units=km normamps=0
New "Linecode.LC_MRT_TRF_28_637A_3" nphases=3 basefreq=60 r1=15000 x1=0 units=km normamps=0
New "Linecode.LC_MRT_TRF_28_637A_4" nphases=4 basefreq=60 r1=15000 x1=0 units=km normamps=0
New "Line.Resist_MTR_TRF_28_637A" phases=1 bus1="325691.1" bus2="MRT_325691TRF_28_637A.1" linecode="LC_MRT_TRF_28_637A_1" length=0.001 units=km 

New "Transformer.TRF_2_1997A" phases=1 windings=3 buses=["MRT_11131TRF_2_1997A.3" "ET2_1997.1.4" "ET2_1997.4.2" ] conns=[Wye Wye Wye] kvs=[13.3367912182804 0.22 0.22]  kvas=[10 10 10] %loadloss=1.950000 %noloadloss=0.500000
New "Reactor.TRF_2_1997A_R" phases=1 bus1=ET2_1997.4 R=15 X=0 basefreq=60
New "Linecode.LC_MRT_TRF_2_1997A_1" nphases=1 basefreq=60 r1=15000 x1=0 units=km normamps=0
New "Linecode.LC_MRT_TRF_2_1997A_2" nphases=2 basefreq=60 r1=15000 x1=0 units=km normamps=0
New "Linecode.LC_MRT_TRF_2_1997A_3" nphases=3 basefreq=60 r1=15000 x1=0 units=km normamps=0
New "Linecode.LC_MRT_TRF_2_1997A_4" nphases=4 basefreq=60 r1=15000 x1=0 units=km normamps=0
New "Line.Resist_MTR_TRF_2_1997A" phases=1 bus1="11131.3" bus2="MRT_11131TRF_2_1997A.3" linecode="LC_MRT_TRF_2_1997A_1" length=0.001 units=km 

New "Transformer.TRF_28_4544A" phases=1 windings=3 buses=["MRT_11071TRF_28_4544A.1" "ET28_4544.1.4" "ET28_4544.4.2" ] conns=[Wye Wye Wye] kvs=[13.3367912182804 0.22 0.22]  kvas=[25 25 25] %loadloss=1.560000 %noloadloss=0.360000
New "Reactor.TRF_28_4544A_R" phases=1 bus1=ET28_4544.4 R=15 X=0 basefreq=60
New "Linecode.LC_MRT_TRF_28_4544A_1" nphases=1 basefreq=60 r1=15000 x1=0 units=km normamps=0
New "Linecode.LC_MRT_TRF_28_4544A_2" nphases=2 basefreq=60 r1=15000 x1=0 units=km normamps=0
New "Linecode.LC_MRT_TRF_28_4544A_3" nphases=3 basefreq=60 r1=15000 x1=0 units=km normamps=0
New "Linecode.LC_MRT_TRF_28_4544A_4" nphases=4 basefreq=60 r1=15000 x1=0 units=km normamps=0
New "Line.Resist_MTR_TRF_28_4544A" phases=1 bus1="11071.1" bus2="MRT_11071TRF_28_4544A.1" linecode="LC_MRT_TRF_28_4544A_1" length=0.001 units=km 

New "Transformer.TRF_28_4444A" phases=1 windings=3 buses=["MRT_365821TRF_28_4444A.1" "ET28_4444.1.4" "ET28_4444.4.2" ] conns=[Wye Wye Wye] kvs=[13.3367912182804 0.22 0.22]  kvas=[15 15 15] %loadloss=1.766667 %noloadloss=0.433333
New "Reactor.TRF_28_4444A_R" phases=1 bus1=ET28_4444.4 R=15 X=0 basefreq=60
New "Linecode.LC_MRT_TRF_28_4444A_1" nphases=1 basefreq=60 r1=15000 x1=0 units=km normamps=0
New "Linecode.LC_MRT_TRF_28_4444A_2" nphases=2 basefreq=60 r1=15000 x1=0 units=km normamps=0
New "Linecode.LC_MRT_TRF_28_4444A_3" nphases=3 basefreq=60 r1=15000 x1=0 units=km normamps=0
New "Linecode.LC_MRT_TRF_28_4444A_4" nphases=4 basefreq=60 r1=15000 x1=0 units=km normamps=0
New "Line.Resist_MTR_TRF_28_4444A" phases=1 bus1="365821.1" bus2="MRT_365821TRF_28_4444A.1" linecode="LC_MRT_TRF_28_4444A_1" length=0.001 units=km 

New "Transformer.TRF_28_4437A" phases=3 windings=2 buses=["497171.1.2.3" "ET28_4437.1.2.3.4"] conns=[Delta Wye] kvs=[23.1 0.38]  kvas=[30 30] %loadloss=2.100000 %noloadloss=0.533333
New "Reactor.TRF_28_4437A_R" phases=1 bus1=ET28_4437.4 R=15 X=0 basefreq=60

New "Transformer.TRF_28_3261A" phases=3 windings=2 buses=["657361.1.2.3" "ET28_3261.1.2.3.4"] conns=[Delta Wye] kvs=[23.1 0.38]  kvas=[112.5 112.5] %loadloss=1.475556 %noloadloss=0.377778
New "Reactor.TRF_28_3261A_R" phases=1 bus1=ET28_3261.4 R=15 X=0 basefreq=60

New "Transformer.TRF_28_1474A" phases=1 windings=3 buses=["MRT_56431TRF_28_1474A.1" "ET28_1474.1.4" "ET28_1474.4.2" ] conns=[Wye Wye Wye] kvs=[13.3367912182804 0.22 0.22]  kvas=[10 10 10] %loadloss=1.950000 %noloadloss=0.500000
New "Reactor.TRF_28_1474A_R" phases=1 bus1=ET28_1474.4 R=15 X=0 basefreq=60
New "Linecode.LC_MRT_TRF_28_1474A_1" nphases=1 basefreq=60 r1=15000 x1=0 units=km normamps=0
New "Linecode.LC_MRT_TRF_28_1474A_2" nphases=2 basefreq=60 r1=15000 x1=0 units=km normamps=0
New "Linecode.LC_MRT_TRF_28_1474A_3" nphases=3 basefreq=60 r1=15000 x1=0 units=km normamps=0
New "Linecode.LC_MRT_TRF_28_1474A_4" nphases=4 basefreq=60 r1=15000 x1=0 units=km normamps=0
New "Line.Resist_MTR_TRF_28_1474A" phases=1 bus1="56431.1" bus2="MRT_56431TRF_28_1474A.1" linecode="LC_MRT_TRF_28_1474A_1" length=0.001 units=km 

New "Transformer.TRF_28_4119A" phases=3 windings=2 buses=["645321.1.2.3" "ET28_4119.1.2.3.4"] conns=[Delta Wye] kvs=[23.1 0.38]  kvas=[30 30] %loadloss=2.100000 %noloadloss=0.533333
New "Reactor.TRF_28_4119A_R" phases=1 bus1=ET28_4119.4 R=15 X=0 basefreq=60

New "Transformer.TRF_28_2000A" phases=1 windings=3 buses=["MRT_110031TRF_28_2000A.1" "ET28_2000.1.4" "ET28_2000.4.2" ] conns=[Wye Wye Wye] kvs=[13.3367912182804 0.22 0.22]  kvas=[10 10 10] %loadloss=1.950000 %noloadloss=0.500000
New "Reactor.TRF_28_2000A_R" phases=1 bus1=ET28_2000.4 R=15 X=0 basefreq=60
New "Linecode.LC_MRT_TRF_28_2000A_1" nphases=1 basefreq=60 r1=15000 x1=0 units=km normamps=0
New "Linecode.LC_MRT_TRF_28_2000A_2" nphases=2 basefreq=60 r1=15000 x1=0 units=km normamps=0
New "Linecode.LC_MRT_TRF_28_2000A_3" nphases=3 basefreq=60 r1=15000 x1=0 units=km normamps=0
New "Linecode.LC_MRT_TRF_28_2000A_4" nphases=4 basefreq=60 r1=15000 x1=0 units=km normamps=0
New "Line.Resist_MTR_TRF_28_2000A" phases=1 bus1="110031.1" bus2="MRT_110031TRF_28_2000A.1" linecode="LC_MRT_TRF_28_2000A_1" length=0.001 units=km 

New "Transformer.TRF_28_626A" phases=3 windings=2 buses=["15191.1.2.3" "ET28_626.1.2.3.4"] conns=[Delta Wye] kvs=[23.1 0.38]  kvas=[15 15] %loadloss=2.500000 %noloadloss=0.633333
New "Reactor.TRF_28_626A_R" phases=1 bus1=ET28_626.4 R=15 X=0 basefreq=60

New "Transformer.TRF_28_4270A" phases=1 windings=3 buses=["MRT_21291TRF_28_4270A.1" "ET28_4270.1.4" "ET28_4270.4.2" ] conns=[Wye Wye Wye] kvs=[13.3367912182804 0.22 0.22]  kvas=[10 10 10] %loadloss=1.950000 %noloadloss=0.500000
New "Reactor.TRF_28_4270A_R" phases=1 bus1=ET28_4270.4 R=15 X=0 basefreq=60
New "Linecode.LC_MRT_TRF_28_4270A_1" nphases=1 basefreq=60 r1=15000 x1=0 units=km normamps=0
New "Linecode.LC_MRT_TRF_28_4270A_2" nphases=2 basefreq=60 r1=15000 x1=0 units=km normamps=0
New "Linecode.LC_MRT_TRF_28_4270A_3" nphases=3 basefreq=60 r1=15000 x1=0 units=km normamps=0
New "Linecode.LC_MRT_TRF_28_4270A_4" nphases=4 basefreq=60 r1=15000 x1=0 units=km normamps=0
New "Line.Resist_MTR_TRF_28_4270A" phases=1 bus1="21291.1" bus2="MRT_21291TRF_28_4270A.1" linecode="LC_MRT_TRF_28_4270A_1" length=0.001 units=km 

New "Transformer.TRF_28_5017A" phases=1 windings=3 buses=["MRT_340491TRF_28_5017A.1" "ET28_5017.1.4" "ET28_5017.4.2" ] conns=[Wye Wye Wye] kvs=[13.3367912182804 0.22 0.22]  kvas=[10 10 10] %loadloss=1.950000 %noloadloss=0.500000
New "Reactor.TRF_28_5017A_R" phases=1 bus1=ET28_5017.4 R=15 X=0 basefreq=60
New "Linecode.LC_MRT_TRF_28_5017A_1" nphases=1 basefreq=60 r1=15000 x1=0 units=km normamps=0
New "Linecode.LC_MRT_TRF_28_5017A_2" nphases=2 basefreq=60 r1=15000 x1=0 units=km normamps=0
New "Linecode.LC_MRT_TRF_28_5017A_3" nphases=3 basefreq=60 r1=15000 x1=0 units=km normamps=0
New "Linecode.LC_MRT_TRF_28_5017A_4" nphases=4 basefreq=60 r1=15000 x1=0 units=km normamps=0
New "Line.Resist_MTR_TRF_28_5017A" phases=1 bus1="340491.1" bus2="MRT_340491TRF_28_5017A.1" linecode="LC_MRT_TRF_28_5017A_1" length=0.001 units=km 

New "Transformer.TRF_28_5258A" phases=1 windings=3 buses=["MRT_372181TRF_28_5258A.3" "ET28_5258.1.4" "ET28_5258.4.2" ] conns=[Wye Wye Wye] kvs=[13.3367912182804 0.22 0.22]  kvas=[10 10 10] %loadloss=1.950000 %noloadloss=0.500000
New "Reactor.TRF_28_5258A_R" phases=1 bus1=ET28_5258.4 R=15 X=0 basefreq=60
New "Linecode.LC_MRT_TRF_28_5258A_1" nphases=1 basefreq=60 r1=15000 x1=0 units=km normamps=0
New "Linecode.LC_MRT_TRF_28_5258A_2" nphases=2 basefreq=60 r1=15000 x1=0 units=km normamps=0
New "Linecode.LC_MRT_TRF_28_5258A_3" nphases=3 basefreq=60 r1=15000 x1=0 units=km normamps=0
New "Linecode.LC_MRT_TRF_28_5258A_4" nphases=4 basefreq=60 r1=15000 x1=0 units=km normamps=0
New "Line.Resist_MTR_TRF_28_5258A" phases=1 bus1="372181.3" bus2="MRT_372181TRF_28_5258A.3" linecode="LC_MRT_TRF_28_5258A_1" length=0.001 units=km 

New "Transformer.TRF_28_635A" phases=1 windings=3 buses=["14371.3.1" "ET28_635.1.4" "ET28_635.4.2" ] conns=[Delta Wye Wye] kvs=[23.1 0.22 0.22]  kvas=[20 20 20] %loadloss=2.100000 %noloadloss=0.500000
New "Reactor.TRF_28_635A_R" phases=1 bus1=ET28_635.4 R=15 X=0 basefreq=60

New "Transformer.TRF_28_1932A" phases=1 windings=3 buses=["MRT_109161TRF_28_1932A.3" "ET28_1932.1.4" "ET28_1932.4.2" ] conns=[Wye Wye Wye] kvs=[13.3367912182804 0.22 0.22]  kvas=[15 15 15] %loadloss=1.766667 %noloadloss=0.433333
New "Reactor.TRF_28_1932A_R" phases=1 bus1=ET28_1932.4 R=15 X=0 basefreq=60
New "Linecode.LC_MRT_TRF_28_1932A_1" nphases=1 basefreq=60 r1=15000 x1=0 units=km normamps=0
New "Linecode.LC_MRT_TRF_28_1932A_2" nphases=2 basefreq=60 r1=15000 x1=0 units=km normamps=0
New "Linecode.LC_MRT_TRF_28_1932A_3" nphases=3 basefreq=60 r1=15000 x1=0 units=km normamps=0
New "Linecode.LC_MRT_TRF_28_1932A_4" nphases=4 basefreq=60 r1=15000 x1=0 units=km normamps=0
New "Line.Resist_MTR_TRF_28_1932A" phases=1 bus1="109161.3" bus2="MRT_109161TRF_28_1932A.3" linecode="LC_MRT_TRF_28_1932A_1" length=0.001 units=km 

New "Transformer.TRF_28_5002A" phases=1 windings=3 buses=["MRT_150561TRF_28_5002A.1" "ET28_5002.1.4" "ET28_5002.4.2" ] conns=[Wye Wye Wye] kvs=[13.3367912182804 0.22 0.22]  kvas=[10 10 10] %loadloss=1.950000 %noloadloss=0.500000
New "Reactor.TRF_28_5002A_R" phases=1 bus1=ET28_5002.4 R=15 X=0 basefreq=60
New "Linecode.LC_MRT_TRF_28_5002A_1" nphases=1 basefreq=60 r1=15000 x1=0 units=km normamps=0
New "Linecode.LC_MRT_TRF_28_5002A_2" nphases=2 basefreq=60 r1=15000 x1=0 units=km normamps=0
New "Linecode.LC_MRT_TRF_28_5002A_3" nphases=3 basefreq=60 r1=15000 x1=0 units=km normamps=0
New "Linecode.LC_MRT_TRF_28_5002A_4" nphases=4 basefreq=60 r1=15000 x1=0 units=km normamps=0
New "Line.Resist_MTR_TRF_28_5002A" phases=1 bus1="150561.1" bus2="MRT_150561TRF_28_5002A.1" linecode="LC_MRT_TRF_28_5002A_1" length=0.001 units=km 

New "Transformer.TRF_28_2793A" phases=1 windings=3 buses=["MRT_109951TRF_28_2793A.3" "ET28_2793.1.4" "ET28_2793.4.2" ] conns=[Wye Wye Wye] kvs=[13.3367912182804 0.22 0.22]  kvas=[10 10 10] %loadloss=1.950000 %noloadloss=0.500000
New "Reactor.TRF_28_2793A_R" phases=1 bus1=ET28_2793.4 R=15 X=0 basefreq=60
New "Linecode.LC_MRT_TRF_28_2793A_1" nphases=1 basefreq=60 r1=15000 x1=0 units=km normamps=0
New "Linecode.LC_MRT_TRF_28_2793A_2" nphases=2 basefreq=60 r1=15000 x1=0 units=km normamps=0
New "Linecode.LC_MRT_TRF_28_2793A_3" nphases=3 basefreq=60 r1=15000 x1=0 units=km normamps=0
New "Linecode.LC_MRT_TRF_28_2793A_4" nphases=4 basefreq=60 r1=15000 x1=0 units=km normamps=0
New "Line.Resist_MTR_TRF_28_2793A" phases=1 bus1="109951.3" bus2="MRT_109951TRF_28_2793A.3" linecode="LC_MRT_TRF_28_2793A_1" length=0.001 units=km 

New "Transformer.TRF_28_634A" phases=1 windings=3 buses=["MRT_27471TRF_28_634A.1" "ET28_634.1.4" "ET28_634.4.2" ] conns=[Wye Wye Wye] kvs=[13.3367912182804 0.22 0.22]  kvas=[25 25 25] %loadloss=1.560000 %noloadloss=0.360000
New "Reactor.TRF_28_634A_R" phases=1 bus1=ET28_634.4 R=15 X=0 basefreq=60
New "Linecode.LC_MRT_TRF_28_634A_1" nphases=1 basefreq=60 r1=15000 x1=0 units=km normamps=0
New "Linecode.LC_MRT_TRF_28_634A_2" nphases=2 basefreq=60 r1=15000 x1=0 units=km normamps=0
New "Linecode.LC_MRT_TRF_28_634A_3" nphases=3 basefreq=60 r1=15000 x1=0 units=km normamps=0
New "Linecode.LC_MRT_TRF_28_634A_4" nphases=4 basefreq=60 r1=15000 x1=0 units=km normamps=0
...