packages/py-dss-toolkit/py_dss_toolkit-0.4.0.tar.gz/py_dss_toolkit-0.4.0/examples/feeders/1_3PAS_1/SegmentosMT_202312598_1_3PAS_1_------1-----.dss
New "Line.SMT_33761" phases=1 bus1="43021.1" bus2="43031.1" linecode="1_1" length=0.092090000 units=km
New "Line.SMT_33861" phases=3 bus1="476531.1.2.3" bus2="773951.1.2.3" linecode="10_3" length=0.003380000 units=km
New "Line.SMT_33860" phases=3 bus1="28RL1562.1.2.3" bus2="628591.1.2.3" linecode="10_3" length=0.021690000 units=km
New "Line.SMT_34510" phases=3 bus1="779041.1.2.3" bus2="141521.1.2.3" linecode="10_3" length=0.085390000 units=km
New "Line.SMT_34525" phases=1 bus1="340731.1" bus2="117781.1" linecode="29_1" length=0.061000000 units=km
New "Line.SMT_35828" phases=2 bus1="56401.3.1" bus2="56411.3.1" linecode="18_2" length=0.102690000 units=km
New "Line.SMT_35827" phases=2 bus1="36811.3.1" bus2="56401.3.1" linecode="18_2" length=0.090630000 units=km
New "Line.SMT_35826" phases=2 bus1="36801.3.1" bus2="36811.3.1" linecode="18_2" length=0.083930000 units=km
New "Line.SMT_36060" phases=1 bus1="53701.2" bus2="789661.2" linecode="1_1" length=0.002170000 units=km
New "Line.SMT_36059" phases=1 bus1="28CF889.2" bus2="53731.2" linecode="1_1" length=0.067350000 units=km
New "Line.SMT_36058" phases=3 bus1="53711.1.2.3" bus2="53721.1.2.3" linecode="10_3" length=0.046570000 units=km
New "Line.SMT_36057" phases=3 bus1="53701.1.2.3" bus2="53711.1.2.3" linecode="10_3" length=0.056320000 units=km
New "Line.SMT_36056" phases=3 bus1="53691.1.2.3" bus2="53701.1.2.3" linecode="10_3" length=0.083450000 units=km
New "Line.SMT_36055" phases=3 bus1="53681.1.2.3" bus2="53691.1.2.3" linecode="10_3" length=0.108190000 units=km
New "Line.SMT_36263" phases=1 bus1="109971.1" bus2="790881.1" linecode="1_1" length=0.004020000 units=km
New "Line.SMT_36262" phases=1 bus1="28FR1762.1" bus2="109981.1" linecode="1_1" length=0.131780000 units=km
New "Line.SMT_36640" phases=3 bus1="53571.1.2.3" bus2="793441.1.2.3" linecode="10_3" length=0.096870000 units=km
New "Line.SMT_36700" phases=3 bus1="28FR741.1.2.3" bus2="793641.1.2.3" linecode="10_3" length=0.001560000 units=km
New "Line.SMT_36699" phases=3 bus1="562451.1.2.3" bus2="793631.1.2.3" linecode="10_3" length=0.001670000 units=km
New "Line.SMT_36698" phases=3 bus1="793641.1.2.3" bus2="562461.1.2.3" linecode="10_3" length=0.040200000 units=km
New "Line.SMT_36960" phases=3 bus1="1_3PAS_1.1.2.3" bus2="794961.1.2.3" linecode="10_3" length=0.052360000 units=km
New "Line.SMT_36959" phases=3 bus1="794961.1.2.3" bus2="60831.1.2.3" linecode="10_3" length=0.013310000 units=km
New "Line.SMT_36990" phases=1 bus1="15281.2" bus2="795211.2" linecode="1_1" length=0.070100000 units=km
New "Line.SMT_37003" phases=2 bus1="12981.3.1" bus2="795261.3.1" linecode="18_2" length=0.002440000 units=km
New "Line.SMT_37002" phases=2 bus1="28FR1859.3.1" bus2="12991.3.1" linecode="18_2" length=0.090100000 units=km
New "Line.SMT_37469" phases=1 bus1="797851.1" bus2="797861.1" linecode="1_1" length=0.110270000 units=km
New "Line.SMT_37468" phases=1 bus1="797841.1" bus2="797851.1" linecode="1_1" length=0.101920000 units=km
New "Line.SMT_37467" phases=1 bus1="797831.1" bus2="797841.1" linecode="1_1" length=0.085890000 units=km
New "Line.SMT_37466" phases=1 bus1="55631.1" bus2="797831.1" linecode="1_1" length=0.081140000 units=km
New "Line.SMT_37681" phases=3 bus1="28CS1866.1.2.3" bus2="799201.1.2.3" linecode="10_3" length=0.001190000 units=km
New "Line.SMT_37680" phases=1 bus1="42801.3" bus2="799191.3" linecode="1_1" length=0.001790000 units=km
New "Line.SMT_37679" phases=3 bus1="60871.1.2.3" bus2="799181.1.2.3" linecode="10_3" length=0.002120000 units=km
New "Line.SMT_37678" phases=3 bus1="799201.1.2.3" bus2="325681.1.2.3" linecode="10_3" length=0.053730000 units=km
New "Line.SMT_37677" phases=1 bus1="28CF1865.3" bus2="42821.3" linecode="1_1" length=0.328080000 units=km
New "Line.SMT_37734" phases=1 bus1="799571.1" bus2="799581.1" linecode="1_1" length=0.073190000 units=km
New "Line.SMT_37733" phases=1 bus1="797841.1" bus2="799571.1" linecode="1_1" length=0.096060000 units=km
New "Line.SMT_38495" phases=3 bus1="804551.1.2.3" bus2="74622.1.2.3" linecode="10_3" length=0.058660000 units=km
New "Line.SMT_38523" phases=3 bus1="804701.1.2.3" bus2="804711.1.2.3" linecode="10_3" length=0.086890000 units=km
New "Line.SMT_38522" phases=3 bus1="804691.1.2.3" bus2="804701.1.2.3" linecode="10_3" length=0.091620000 units=km
New "Line.SMT_38521" phases=3 bus1="804681.1.2.3" bus2="804691.1.2.3" linecode="10_3" length=0.087100000 units=km
New "Line.SMT_38520" phases=3 bus1="804671.1.2.3" bus2="804681.1.2.3" linecode="10_3" length=0.090800000 units=km
New "Line.SMT_38497" phases=3 bus1="59501.1.2.3" bus2="804551.1.2.3" linecode="10_3" length=0.102700000 units=km
New "Line.SMT_38496" phases=3 bus1="74622.1.2.3" bus2="74631.1.2.3" linecode="10_3" length=0.086590000 units=km
New "Line.SMT_38525" phases=3 bus1="804721.1.2.3" bus2="804731.1.2.3" linecode="10_3" length=0.065940000 units=km
New "Line.SMT_38524" phases=3 bus1="804711.1.2.3" bus2="804721.1.2.3" linecode="10_3" length=0.081940000 units=km
...